REMARK  Name = 
REMARK                            x       y       z     vdW  Elec       q    Type
REMARK                         _______ _______ _______ _____ _____    ______ ____
ROOT
ATOM      1  N   LIG    1        7.767  -2.513   0.000  0.00  0.00    -0.269 N 
ATOM      2  C   LIG    1        8.204  -1.892   0.000  0.00  0.00    +0.182 A 
ATOM      3  N   LIG    1        7.767  -1.288   0.000  0.00  0.00    -0.219 NA
ATOM      4  C   LIG    1        7.054  -1.517   0.000  0.00  0.00    +0.153 A 
ATOM      5  C   LIG    1        6.392  -1.129   0.000  0.00  0.00    +0.189 A 
ATOM      6  N   LIG    1        5.754  -1.517   0.000  0.00  0.00    -0.275 N 
ATOM      7  C   LIG    1        4.679  -1.604   0.000  0.00  0.00    +0.264 C 
ATOM      8  O   LIG    1        4.017  -2.079   0.000  0.00  0.00    -0.344 OA
ATOM      9  C   LIG    1        3.354  -1.592   0.000  0.00  0.00    +0.200 C 
ATOM     10  C   LIG    1        3.617  -0.812   0.000  0.00  0.00    +0.209 C 
ATOM     11  O   LIG    1        3.104  -0.104   0.000  0.00  0.00    -0.218 OA
ATOM     12  C   LIG    1        1.942  -1.867   0.000  0.00  0.00    +0.175 C 
ATOM     13  O   LIG    1        1.754  -3.179   0.000  0.00  0.00    -0.312 OA
ATOM     14  P   LIG    1        2.517  -3.179   0.000  0.00  0.00    +0.219 P 
ATOM     15  O   LIG    1        2.517  -3.942   0.000  0.00  0.00    -0.437 OA
ATOM     16  O   LIG    1        2.517  -2.429   0.000  0.00  0.00    -0.517 OA
ATOM     17  O   LIG    1        3.292  -3.550   0.000  0.00  0.00    -0.270 OA
ATOM     18  P   LIG    1        4.042  -3.550   0.000  0.00  0.00    +0.219 P 
ATOM     19  O   LIG    1        4.042  -4.304   0.000  0.00  0.00    -0.437 OA
ATOM     20  O   LIG    1        4.042  -2.792   0.000  0.00  0.00    -0.517 OA
ATOM     21  O   LIG    1        4.804  -3.550   0.000  0.00  0.00    -0.312 OA
ATOM     22  C   LIG    1        5.592  -3.550   0.000  0.00  0.00    +0.175 C 
ATOM     23  C   LIG    1        5.592  -4.142   0.000  0.00  0.00    +0.201 C 
ATOM     24  C   LIG    1        6.017  -4.992   0.000  0.00  0.00    +0.210 C 
ATOM     25  O   LIG    1        5.550  -5.742   0.000  0.00  0.00    -0.218 OA
ATOM     26  C   LIG    1        7.342  -4.992   0.000  0.00  0.00    +0.233 C 
ATOM     27  O   LIG    1        7.800  -5.729   0.000  0.00  0.00    -0.216 OA
ATOM     28  O   LIG    1        6.667  -3.550   0.000  0.00  0.00    -0.337 OA
ATOM     29  C   LIG    1        4.442  -0.817   0.000  0.00  0.00    +0.225 C 
ATOM     30  O   LIG    1        4.954  -0.117   0.000  0.00  0.00    -0.216 OA
ATOM     31  C   LIG    1        5.754  -2.279   0.000  0.00  0.00    +0.183 A 
ATOM     32  N   LIG    1        6.392  -2.667   0.000  0.00  0.00    -0.206 NA
ATOM     33  N   LIG    1        6.392  -0.392   0.000  0.00  0.00    -0.127 NA
ATOM     34  C   LIG    1        7.767  -4.142   0.000  0.00  0.00    +0.241 C 
ATOM     35  C   LIG    1        7.054  -2.279   0.000  0.00  0.00    +0.169 A 
ENDROOT
TORSDOF 0
