REMARK  Name = 
REMARK                            x       y       z     vdW  Elec       q    Type
REMARK                         _______ _______ _______ _____ _____    ______ ____
ROOT
ATOM      1  C   LIG    1        0.659  -0.508   0.000  0.00  0.00    +0.151 C 
ATOM      2  O   LIG    1       -0.008  -0.023   0.000  0.00  0.00    -0.333 OA
ATOM      3  C   LIG    1       -0.675  -0.508   0.000  0.00  0.00    +0.241 C 
ATOM      4  C   LIG    1       -0.420  -1.293   0.000  0.00  0.00    +0.234 C 
ATOM      5  O   LIG    1       -0.905  -1.960   0.000  0.00  0.00    -0.216 OA
ATOM      6  C   LIG    1        0.405  -1.293   0.000  0.00  0.00    +0.214 C 
ATOM      7  O   LIG    1        0.889  -1.960   0.000  0.00  0.00    -0.218 OA
ENDROOT
BRANCH   3   8
ATOM      8  N   LIG    1       -1.460  -0.253   0.000  0.00  0.00    -0.269 N 
ATOM      9  C   LIG    1       -1.715   0.531   0.000  0.00  0.00    +0.169 A 
ATOM     10  C   LIG    1       -2.540   0.531   0.000  0.00  0.00    +0.152 A 
ATOM     11  C   LIG    1       -2.953   1.246   0.000  0.00  0.00    +0.192 A 
ATOM     12  N   LIG    1       -2.540   1.960   0.000  0.00  0.00    -0.204 NA
ATOM     13  C   LIG    1       -1.715   1.960   0.000  0.00  0.00    +0.202 A 
ATOM     14  N   LIG    1       -3.777   1.246   0.000  0.00  0.00    -0.105 NA
ATOM     15  N   LIG    1       -2.795  -0.253   0.000  0.00  0.00    -0.219 NA
ATOM     16  N   LIG    1       -1.302   1.246   0.000  0.00  0.00    -0.205 NA
ATOM     17  C   LIG    1       -2.127  -0.738   0.000  0.00  0.00    +0.182 A 
ENDBRANCH   3   8
BRANCH   1  18
ATOM     18  C   LIG    1        1.444  -0.253   0.000  0.00  0.00    +0.043 C 
BRANCH  18  19
ATOM     19  C   LIG    1        2.027  -0.837   0.000  0.00  0.00    +0.092 C 
BRANCH  19  20
ATOM     20  P   LIG    1        2.824  -0.623   0.000  0.00  0.00    +0.261 P 
ATOM     21  O   LIG    1        3.038  -1.420   0.000  0.00  0.00    -0.167 OA
ATOM     22  O   LIG    1        3.621  -0.410   0.000  0.00  0.00    -0.286 OA
BRANCH  20  23
ATOM     23  C   LIG    1        2.611   0.174   0.000  0.00  0.00    +0.148 C 
BRANCH  23  24
ATOM     24  P   LIG    1        3.194   0.757   0.000  0.00  0.00    +0.127 P 
ATOM     25  O   LIG    1        3.777   0.174   0.000  0.00  0.00    -0.357 OA
ATOM     26  O   LIG    1        3.777   1.341   0.000  0.00  0.00    -0.460 OA
ATOM     27  O   LIG    1        2.611   1.341   0.000  0.00  0.00    -0.357 OA
ENDBRANCH  23  24
ENDBRANCH  20  23
ENDBRANCH  19  20
ENDBRANCH  18  19
ENDBRANCH   1  18
TORSDOF 6
