REMARK  Name = 
REMARK                            x       y       z     vdW  Elec       q    Type
REMARK                         _______ _______ _______ _____ _____    ______ ____
ROOT
ATOM      1  C   LIG    1        6.316 -26.123   0.000  0.00  0.00    +0.180 C 
ATOM      2  O   LIG    1        6.971 -25.656   0.000  0.00  0.00    -0.331 OA
ATOM      3  C   LIG    1        7.642 -26.159   0.000  0.00  0.00    +0.241 C 
ATOM      4  C   LIG    1        7.385 -26.898   0.000  0.00  0.00    +0.234 C 
ATOM      5  O   LIG    1        7.839 -27.537   0.000  0.00  0.00    -0.216 OA
ATOM      6  C   LIG    1        6.567 -26.898   0.000  0.00  0.00    +0.216 C 
ATOM      7  O   LIG    1        6.081 -27.567   0.000  0.00  0.00    -0.218 OA
ENDROOT
BRANCH   3   8
ATOM      8  N   LIG    1        8.408 -25.909   0.000  0.00  0.00    -0.269 N 
ATOM      9  C   LIG    1        9.032 -26.348   0.000  0.00  0.00    +0.169 A 
ATOM     10  N   LIG    1        9.113 -27.185   0.000  0.00  0.00    -0.205 NA
ATOM     11  C   LIG    1        9.897 -27.539   0.000  0.00  0.00    +0.202 A 
ATOM     12  N   LIG    1       10.607 -27.019   0.000  0.00  0.00    -0.204 NA
ATOM     13  C   LIG    1       10.510 -26.135   0.000  0.00  0.00    +0.192 A 
ATOM     14  N   LIG    1       11.166 -25.652   0.000  0.00  0.00    -0.105 NA
ATOM     15  C   LIG    1        9.769 -25.807   0.000  0.00  0.00    +0.152 A 
ATOM     16  N   LIG    1        9.544 -25.091   0.000  0.00  0.00    -0.219 NA
ATOM     17  C   LIG    1        8.687 -25.087   0.000  0.00  0.00    +0.182 A 
ENDBRANCH   3   8
BRANCH   1  18
ATOM     18  C   LIG    1        5.548 -25.882   0.000  0.00  0.00    +0.181 C 
BRANCH  18  19
ATOM     19  O   LIG    1        5.523 -25.073   0.000  0.00  0.00    -0.311 OA
BRANCH  19  20
ATOM     20  P   LIG    1        4.795 -24.679   0.000  0.00  0.00    +0.219 P 
ATOM     21  O   LIG    1        3.967 -24.674   0.000  0.00  0.00    -0.517 OA
ATOM     22  O   LIG    1        4.574 -25.473   0.000  0.00  0.00    -0.437 OA
BRANCH  20  23
ATOM     23  O   LIG    1        4.770 -23.851   0.000  0.00  0.00    -0.270 OA
BRANCH  23  24
ATOM     24  P   LIG    1        4.042 -23.460   0.000  0.00  0.00    +0.219 P 
ATOM     25  O   LIG    1        3.624 -24.173   0.000  0.00  0.00    -0.517 OA
ATOM     26  O   LIG    1        3.215 -23.459   0.000  0.00  0.00    -0.437 OA
BRANCH  24  27
ATOM     27  O   LIG    1        4.017 -22.633   0.000  0.00  0.00    -0.316 OA
BRANCH  27  28
ATOM     28  C   LIG    1        4.685 -22.146   0.000  0.00  0.00    +0.122 C 
ATOM     29  C   LIG    1        4.680 -21.322   0.000  0.00  0.00    +0.030 C 
ATOM     30  C   LIG    1        5.466 -21.062   0.000  0.00  0.00    +0.003 C 
ATOM     31  C   LIG    1        5.955 -21.730   0.000  0.00  0.00    +0.003 C 
ATOM     32  C   LIG    1        5.470 -22.400   0.000  0.00  0.00    +0.030 C 
ENDBRANCH  27  28
ENDBRANCH  24  27
ENDBRANCH  23  24
ENDBRANCH  20  23
ENDBRANCH  19  20
ENDBRANCH  18  19
ENDBRANCH   1  18
TORSDOF 8
