REMARK  Name = 
REMARK                            x       y       z     vdW  Elec       q    Type
REMARK                         _______ _______ _______ _____ _____    ______ ____
ROOT
ATOM      1  C   LIG    1       18.539  -4.552   0.000  0.00  0.00    +0.181 C 
ENDROOT
BRANCH   1   7
ATOM      2  C   LIG    1       18.778  -2.432   0.000  0.00  0.00    +0.241 C 
ATOM      3  C   LIG    1       19.568  -2.681   0.000  0.00  0.00    +0.234 C 
ATOM      4  O   LIG    1       20.232  -2.192   0.000  0.00  0.00    -0.216 OA
ATOM      5  C   LIG    1       19.573  -3.506   0.000  0.00  0.00    +0.216 C 
ATOM      6  O   LIG    1       20.243  -3.987   0.000  0.00  0.00    -0.218 OA
ATOM      7  C   LIG    1       18.789  -3.766   0.000  0.00  0.00    +0.180 C 
ATOM      8  O   LIG    1       18.301  -3.101   0.000  0.00  0.00    -0.331 OA
BRANCH   2  15
ATOM      9  N   LIG    1       16.299  -0.575   0.000  0.00  0.00    -0.204 NA
ATOM     10  C   LIG    1       17.010  -0.162   0.000  0.00  0.00    +0.192 A 
ATOM     11  N   LIG    1       17.008   0.670   0.000  0.00  0.00    -0.105 NA
ATOM     12  C   LIG    1       17.726  -0.571   0.000  0.00  0.00    +0.152 A 
ATOM     13  N   LIG    1       18.510  -0.311   0.000  0.00  0.00    -0.219 NA
ATOM     14  C   LIG    1       19.000  -0.977   0.000  0.00  0.00    +0.182 A 
ATOM     15  N   LIG    1       18.518  -1.649   0.000  0.00  0.00    -0.269 N 
ATOM     16  C   LIG    1       17.731  -1.398   0.000  0.00  0.00    +0.169 A 
ATOM     17  N   LIG    1       17.012  -1.815   0.000  0.00  0.00    -0.205 NA
ATOM     18  C   LIG    1       16.297  -1.402   0.000  0.00  0.00    +0.202 A 
ENDBRANCH   2  15
ENDBRANCH   1   7
BRANCH   1  19
ATOM     19  O   LIG    1       17.733  -4.728   0.000  0.00  0.00    -0.311 OA
BRANCH  19  20
ATOM     20  P   LIG    1       17.483  -5.514   0.000  0.00  0.00    +0.219 P 
ATOM     21  O   LIG    1       16.788  -5.069   0.000  0.00  0.00    -0.437 OA
ATOM     22  O   LIG    1       18.038  -6.124   0.000  0.00  0.00    -0.517 OA
BRANCH  20  23
ATOM     23  O   LIG    1       16.677  -5.691   0.000  0.00  0.00    -0.270 OA
BRANCH  23  24
ATOM     24  P   LIG    1       16.426  -6.476   0.000  0.00  0.00    +0.219 P 
ATOM     25  O   LIG    1       15.732  -6.031   0.000  0.00  0.00    -0.437 OA
ATOM     26  O   LIG    1       16.982  -7.086   0.000  0.00  0.00    -0.517 OA
BRANCH  24  27
ATOM     27  O   LIG    1       15.620  -6.653   0.000  0.00  0.00    -0.311 OA
BRANCH  27  28
ATOM     28  C   LIG    1       15.370  -7.439   0.000  0.00  0.00    +0.181 C 
BRANCH  28  29
ATOM     29  C   LIG    1       14.564  -7.615   0.000  0.00  0.00    +0.181 C 
ATOM     30  C   LIG    1       14.229  -8.371   0.000  0.00  0.00    +0.217 C 
ATOM     31  O   LIG    1       14.644  -9.084   0.000  0.00  0.00    -0.218 OA
ATOM     32  C   LIG    1       13.408  -8.289   0.000  0.00  0.00    +0.243 C 
ATOM     33  O   LIG    1       12.860  -8.906   0.000  0.00  0.00    -0.215 OA
ATOM     34  C   LIG    1       13.232  -7.483   0.000  0.00  0.00    +0.302 C 
ATOM     35  O   LIG    1       12.476  -7.152   0.000  0.00  0.00    -0.187 OA
ATOM     36  O   LIG    1       13.944  -7.067   0.000  0.00  0.00    -0.324 OA
ENDBRANCH  28  29
ENDBRANCH  27  28
ENDBRANCH  24  27
ENDBRANCH  23  24
ENDBRANCH  20  23
ENDBRANCH  19  20
ENDBRANCH   1  19
TORSDOF 9
