
     RDKit          2D

 72 77  0  0  0  0  0  0  0  0999 V2000
    1.7167   -4.5167    0.0000 N   0  0  0  0  0  0  0  0  0  0  0  0
    8.2625    0.3208    0.0000 N   0  0  0  0  0  0  0  0  0  0  0  0
    2.3000   -4.3667    0.0000 C   0  0  0  0  0  0  0  0  0  0  0  0
    8.0125   -0.2167    0.0000 C   0  0  0  0  0  0  0  0  0  0  0  0
    1.5042   -5.0750    0.0000 C   0  0  0  0  0  0  0  0  0  0  0  0
    8.8500    0.4375    0.0000 C   0  0  0  0  0  0  0  0  0  0  0  0
    1.3917   -4.0167    0.0000 C   0  0  0  0  0  0  0  0  0  0  0  0
    7.8167    0.7250    0.0000 C   0  0  0  0  0  0  0  0  0  0  0  0
    7.4167   -0.1542    0.0000 N   0  0  0  0  0  0  0  0  0  0  0  0
    2.3375   -3.7750    0.0000 N   0  0  0  0  0  0  0  0  0  0  0  0
    7.2917    0.4250    0.0000 C   0  0  0  0  0  0  0  0  0  0  0  0
    1.7792   -3.5625    0.0000 C   0  0  0  0  0  0  0  0  0  0  0  0
    1.8250   -5.5792    0.0000 C   0  0  0  0  0  0  0  0  0  0  0  0
    9.3000    0.0333    0.0000 C   0  0  0  0  0  0  0  0  0  0  0  0
    9.1042    0.9833    0.0000 O   0  0  0  0  0  0  0  0  0  0  0  0
    0.9167   -5.2292    0.0000 O   0  0  0  0  0  0  0  0  0  0  0  0
   -0.0458   -7.0792    0.0000 P   0  0  0  0  0  0  0  0  0  0  0  0
   11.1125    1.6125    0.0000 P   0  0  0  0  0  0  0  0  0  0  0  0
   -0.9958   -6.6542    0.0000 P   0  0  0  0  0  0  0  0  0  0  0  0
   10.8542    2.6125    0.0000 P   0  0  0  0  0  0  0  0  0  0  0  0
   10.6917    2.0375    0.0000 O   0  0  0  0  0  0  0  0  0  0  0  0
   -0.3958   -6.6042    0.0000 O   0  0  0  0  0  0  0  0  0  0  0  0
    9.7000    0.9208    0.0000 C   0  0  0  0  0  0  0  0  0  0  0  0
    0.8875   -5.8292    0.0000 C   0  0  0  0  0  0  0  0  0  0  0  0
    9.8167    0.3333    0.0000 C   0  0  0  0  0  0  0  0  0  0  0  0
    1.4542   -6.0375    0.0000 C   0  0  0  0  0  0  0  0  0  0  0  0
    3.9875   -3.7375    0.0000 S   0  0  0  0  0  0  0  0  0  0  0  0
    7.1000   -1.7667    0.0000 S   0  0  0  0  0  0  0  0  0  0  0  0
    7.8167    1.3208    0.0000 N   0  0  0  0  0  0  0  0  0  0  0  0
    0.8042   -3.9167    0.0000 N   0  0  0  0  0  0  0  0  0  0  0  0
    1.5667   -3.0000    0.0000 C   0  0  0  0  0  0  0  0  0  0  0  0
    6.7792    0.7375    0.0000 C   0  0  0  0  0  0  0  0  0  0  0  0
    0.9667   -2.9042    0.0000 N   0  0  0  0  0  0  0  0  0  0  0  0
    6.7792    1.3250    0.0000 N   0  0  0  0  0  0  0  0  0  0  0  0
   10.1125    1.3583    0.0000 C   0  0  0  0  0  0  0  0  0  0  0  0
    0.3792   -6.1417    0.0000 C   0  0  0  0  0  0  0  0  0  0  0  0
    0.5792   -3.3542    0.0000 C   0  0  0  0  0  0  0  0  0  0  0  0
    7.3125    1.6250    0.0000 C   0  0  0  0  0  0  0  0  0  0  0  0
    7.4042   -1.2500    0.0000 C   0  0  0  0  0  0  0  0  0  0  0  0
    3.4250   -3.9417    0.0000 C   0  0  0  0  0  0  0  0  0  0  0  0
    0.4375   -6.7417    0.0000 O   0  0  0  0  0  0  0  0  0  0  0  0
   10.6875    1.1958    0.0000 O   0  0  0  0  0  0  0  0  0  0  0  0
    2.7667   -4.7417    0.0000 S   0  0  0  0  0  0  0  0  0  0  0  0
    8.3042   -0.7292    0.0000 S   0  0  0  0  0  0  0  0  0  0  0  0
   -0.5333   -7.4292    0.0000 O   0  0  0  0  0  0  0  0  0  0  0  0
   11.5417    2.0333    0.0000 O   0  0  0  0  0  0  0  0  0  0  0  0
   10.2667    2.7833    0.0000 O   0  0  0  0  0  0  0  0  0  0  0  0
   -1.0625   -6.0667    0.0000 O   0  0  0  0  0  0  0  0  0  0  0  0
    3.6417   -3.2417    0.0000 O   0  0  0  0  0  0  0  0  0  0  0  0
    4.2042   -4.2875    0.0000 O   0  0  0  0  0  0  0  0  0  0  0  0
    6.6667   -1.3292    0.0000 O   0  0  0  0  0  0  0  0  0  0  0  0
    7.6167   -2.0667    0.0000 O   0  0  0  0  0  0  0  0  0  0  0  0
    2.4167   -5.6125    0.0000 O   0  0  0  0  0  0  0  0  0  0  0  0
    9.2375   -0.5625    0.0000 O   0  0  0  0  0  0  0  0  0  0  0  0
    0.3042   -7.5750    0.0000 O   0  0  0  0  0  0  0  0  0  0  0  0
   11.5417    1.1875    0.0000 O   0  0  0  0  0  0  0  0  0  0  0  0
   -0.9375   -7.2542    0.0000 O   0  0  0  0  0  0  0  0  0  0  0  0
   11.0125    3.1833    0.0000 O   0  0  0  0  0  0  0  0  0  0  0  0
   11.4292    2.4583    0.0000 O   0  0  0  0  0  0  0  0  0  0  0  0
   -1.6083   -6.7250    0.0000 O   0  0  0  0  0  0  0  0  0  0  0  0
    1.9417   -2.5417    0.0000 N   0  0  0  0  0  0  0  0  0  0  0  0
    6.2542    0.4375    0.0000 N   0  0  0  0  0  0  0  0  0  0  0  0
    1.6125   -6.6125    0.0000 O   0  0  0  0  0  0  0  0  0  0  0  0
   10.3625    0.0875    0.0000 O   0  0  0  0  0  0  0  0  0  0  0  0
    3.3292   -4.5375    0.0000 C   0  0  0  0  0  0  0  0  0  0  0  0
    8.0042   -1.2500    0.0000 C   0  0  0  0  0  0  0  0  0  0  0  0
    4.5875   -3.6750    0.0000 C   0  0  0  0  0  0  0  0  0  0  0  0
    6.5125   -1.9167    0.0000 C   0  0  0  0  0  0  0  0  0  0  0  0
    6.2667   -2.4625    0.0000 C   0  0  0  0  0  0  0  0  0  0  0  0
    4.8292   -3.1292    0.0000 C   0  0  0  0  0  0  0  0  0  0  0  0
    5.4292   -3.0667    0.0000 C   0  0  0  0  0  0  0  0  0  0  0  0
    5.6667   -2.5250    0.0000 C   0  0  0  0  0  0  0  0  0  0  0  0
  2  4  1  0
  3  1  1  0
  4 44  1  0
  5  1  1  0
  6  2  1  0
  7  1  1  0
  8  2  1  0
  9  4  2  0
 10  3  2  0
 11  9  1  0
 12  7  2  0
 13  5  1  0
 14  6  1  0
 15  6  1  0
 16  5  1  0
 17 41  1  0
 18 42  1  0
 19 22  1  0
 20 21  1  0
 21 18  1  0
 22 17  1  0
 23 15  1  0
 24 16  1  0
 25 14  1  0
 26 13  1  0
 27 40  1  0
 28 68  1  0
 29  8  1  0
 30  7  1  0
 31 12  1  0
 32 11  1  0
 33 37  1  0
 34 32  2  0
 23 35  1  6
 24 36  1  1
 37 30  2  0
 38 29  2  0
 39 28  1  0
 40 65  1  0
 41 36  1  0
 42 35  1  0
 43  3  1  0
 44 66  1  0
 45 17  2  0
 46 18  2  0
 47 20  2  0
 48 19  2  0
 49 27  2  0
 50 27  2  0
 51 28  2  0
 52 28  2  0
 13 53  1  6
 14 54  1  6
 55 17  1  0
 56 18  1  0
 57 19  1  0
 58 20  1  0
 59 20  1  0
 60 19  1  0
 61 31  1  0
 62 32  1  0
 26 63  1  6
 25 64  1  6
 65 43  1  0
 66 39  1  0
 67 27  1  0
 68 69  1  0
 69 72  1  0
 70 67  1  0
 71 70  1  0
 72 71  1  0
 12 10  1  0
 26 24  1  0
 33 31  2  0
  8 11  2  0
 38 34  1  0
 25 23  1  0
M  END

> <chembl_id>
CHEMBL610861

> <chembl_pref_name>
None

$$$$

     RDKit          2D

 36 39  0  0  0  0  0  0  0  0999 V2000
   16.2985   -0.5749    0.0000 N   0  0  0  0  0  0  0  0  0  0  0  0
   16.2974   -1.4024    0.0000 C   0  0  0  0  0  0  0  0  0  0  0  0
   17.0122   -1.8152    0.0000 N   0  0  0  0  0  0  0  0  0  0  0  0
   17.0104   -0.1622    0.0000 C   0  0  0  0  0  0  0  0  0  0  0  0
   17.7257   -0.5713    0.0000 C   0  0  0  0  0  0  0  0  0  0  0  0
   17.7306   -1.3977    0.0000 C   0  0  0  0  0  0  0  0  0  0  0  0
   18.5181   -1.6486    0.0000 N   0  0  0  0  0  0  0  0  0  0  0  0
   19.0000   -0.9771    0.0000 C   0  0  0  0  0  0  0  0  0  0  0  0
   18.5103   -0.3114    0.0000 N   0  0  0  0  0  0  0  0  0  0  0  0
   17.0080    0.6705    0.0000 N   0  0  0  0  0  0  0  0  0  0  0  0
   18.7776   -2.4317    0.0000 C   0  0  0  0  0  0  0  0  0  0  0  0
   18.3006   -3.1011    0.0000 O   0  0  0  0  0  0  0  0  0  0  0  0
   18.7893   -3.7658    0.0000 C   0  0  0  0  0  0  0  0  0  0  0  0
   19.5725   -3.5063    0.0000 C   0  0  0  0  0  0  0  0  0  0  0  0
   19.5676   -2.6814    0.0000 C   0  0  0  0  0  0  0  0  0  0  0  0
   18.5389   -4.5519    0.0000 C   0  0  0  0  0  0  0  0  0  0  0  0
   17.7330   -4.7281    0.0000 O   0  0  0  0  0  0  0  0  0  0  0  0
   17.4826   -5.5142    0.0000 P   0  0  0  0  0  0  0  0  0  0  0  0
   16.6767   -5.6905    0.0000 O   0  0  0  0  0  0  0  0  0  0  0  0
   18.0382   -6.1241    0.0000 O   0  0  0  0  0  0  0  0  0  0  0  0
   16.7882   -5.0689    0.0000 O   0  0  0  0  0  0  0  0  0  0  0  0
   16.4263   -6.4765    0.0000 P   0  0  0  0  0  0  0  0  0  0  0  0
   15.6203   -6.6528    0.0000 O   0  0  0  0  0  0  0  0  0  0  0  0
   16.9819   -7.0864    0.0000 O   0  0  0  0  0  0  0  0  0  0  0  0
   15.7318   -6.0312    0.0000 O   0  0  0  0  0  0  0  0  0  0  0  0
   15.3700   -7.4388    0.0000 C   0  0  0  0  0  0  0  0  0  0  0  0
   14.5640   -7.6151    0.0000 C   0  0  0  0  0  0  0  0  0  0  0  0
   13.9438   -7.0668    0.0000 O   0  0  0  0  0  0  0  0  0  0  0  0
   13.2317   -7.4834    0.0000 C   0  0  0  0  0  0  0  0  0  0  0  0
   13.4079   -8.2894    0.0000 C   0  0  0  0  0  0  0  0  0  0  0  0
   14.2289   -8.3707    0.0000 C   0  0  0  0  0  0  0  0  0  0  0  0
   12.4761   -7.1523    0.0000 O   0  0  0  0  0  0  0  0  0  0  0  0
   12.8595   -8.9058    0.0000 O   0  0  0  0  0  0  0  0  0  0  0  0
   14.6440   -9.0837    0.0000 O   0  0  0  0  0  0  0  0  0  0  0  0
   20.2428   -3.9872    0.0000 O   0  0  0  0  0  0  0  0  0  0  0  0
   20.2317   -2.1917    0.0000 O   0  0  0  0  0  0  0  0  0  0  0  0
  1  2  2  0
  2  3  1  0
  3  6  2  0
  5  4  2  0
  4  1  1  0
  5  6  1  0
  6  7  1  0
  7  8  1  0
  8  9  2  0
  9  5  1  0
  4 10  1  0
 11  7  1  1
 11 12  1  0
 12 13  1  0
 13 14  1  0
 14 15  1  0
 15 11  1  0
 13 16  1  1
 16 17  1  0
 17 18  1  0
 18 19  1  0
 18 20  2  0
 18 21  1  0
 19 22  1  0
 22 23  1  0
 22 24  2  0
 22 25  1  0
 23 26  1  0
 27 26  1  1
 27 28  1  0
 28 29  1  0
 29 30  1  0
 30 31  1  0
 31 27  1  0
 29 32  1  1
 30 33  1  6
 31 34  1  6
 14 35  1  6
 15 36  1  6
M  END

> <chembl_id>
CHEMBL4226903

> <chembl_pref_name>
None

$$$$

     RDKit          2D

 32 35  0  0  0  0  0  0  0  0999 V2000
    5.5229  -25.0727    0.0000 O   0  0  0  0  0  0  0  0  0  0  0  0
   10.6075  -27.0189    0.0000 N   0  0  0  0  0  0  0  0  0  0  0  0
    9.0318  -26.3478    0.0000 C   0  0  0  0  0  0  0  0  0  0  0  0
   11.1659  -25.6525    0.0000 N   0  0  0  0  0  0  0  0  0  0  0  0
   10.5102  -26.1349    0.0000 C   0  0  0  0  0  0  0  0  0  0  0  0
    4.7703  -23.8511    0.0000 O   0  0  0  0  0  0  0  0  0  0  0  0
    9.7687  -25.8074    0.0000 C   0  0  0  0  0  0  0  0  0  0  0  0
    9.5445  -25.0911    0.0000 N   0  0  0  0  0  0  0  0  0  0  0  0
    6.9713  -25.6563    0.0000 O   0  0  0  0  0  0  0  0  0  0  0  0
    3.9671  -24.6745    0.0000 O   0  0  0  0  0  0  0  0  0  0  0  0
    8.6870  -25.0869    0.0000 C   0  0  0  0  0  0  0  0  0  0  0  0
    4.5743  -25.4727    0.0000 O   0  0  0  0  0  0  0  0  0  0  0  0
    8.4076  -25.9088    0.0000 N   0  0  0  0  0  0  0  0  0  0  0  0
    5.5475  -25.8820    0.0000 C   0  0  0  0  0  0  0  0  0  0  0  0
    7.6419  -26.1586    0.0000 C   0  0  0  0  0  0  0  0  0  0  0  0
    6.5674  -26.8985    0.0000 C   0  0  0  0  0  0  0  0  0  0  0  0
    6.3165  -26.1233    0.0000 C   0  0  0  0  0  0  0  0  0  0  0  0
    4.7953  -24.6787    0.0000 P   0  0  0  0  0  0  0  0  0  0  0  0
    7.3852  -26.8985    0.0000 C   0  0  0  0  0  0  0  0  0  0  0  0
    9.1134  -27.1848    0.0000 N   0  0  0  0  0  0  0  0  0  0  0  0
    9.8968  -27.5391    0.0000 C   0  0  0  0  0  0  0  0  0  0  0  0
    6.0811  -27.5669    0.0000 O   0  0  0  0  0  0  0  0  0  0  0  0
    7.8392  -27.5366    0.0000 O   0  0  0  0  0  0  0  0  0  0  0  0
    4.0421  -23.4597    0.0000 P   0  0  0  0  0  0  0  0  0  0  0  0
    4.0171  -22.6334    0.0000 O   0  0  0  0  0  0  0  0  0  0  0  0
    3.2147  -23.4587    0.0000 O   0  0  0  0  0  0  0  0  0  0  0  0
    3.6238  -24.1727    0.0000 O   0  0  0  0  0  0  0  0  0  0  0  0
    4.6850  -22.1461    0.0000 C   0  0  0  0  0  0  0  0  0  0  0  0
    5.4698  -22.4003    0.0000 C   0  0  0  0  0  0  0  0  0  0  0  0
    5.9551  -21.7300    0.0000 C   0  0  0  0  0  0  0  0  0  0  0  0
    5.4661  -21.0621    0.0000 C   0  0  0  0  0  0  0  0  0  0  0  0
    4.6803  -21.3219    0.0000 C   0  0  0  0  0  0  0  0  0  0  0  0
  7  5  1  0
 20 21  2  0
 17 14  1  1
 18 12  1  0
 13 11  1  0
 15  9  1  0
 14  1  1  0
 21  2  1  0
 19 15  1  0
  3  7  2  0
  3 20  1  0
 11  8  2  0
  7  8  1  0
 18  6  1  0
  5  4  1  0
 16 17  1  0
 13  3  1  0
 19 16  1  0
  1 18  1  0
 15 13  1  1
 18 10  2  0
  5  2  2  0
  9 17  1  0
 16 22  1  6
 19 23  1  6
  6 24  1  0
 24 25  1  0
 24 26  1  0
 24 27  2  0
 25 28  1  0
 29 30  1  0
 28 29  1  0
 30 31  1  0
 31 32  1  0
 32 28  1  0
M  END

> <chembl_id>
CHEMBL3110202

> <chembl_pref_name>
None

$$$$

     RDKit          2D

 38 42  0  0  0  0  0  0  0  0999 V2000
    7.7667   -2.5125    0.0000 N   0  0  0  0  0  0  0  0  0  0  0  0
    5.7542   -1.5167    0.0000 N   0  0  0  0  0  0  0  0  0  0  0  0
    7.0542   -2.2792    0.0000 C   0  0  0  0  0  0  0  0  0  0  0  0
    7.0542   -1.5167    0.0000 C   0  0  0  0  0  0  0  0  0  0  0  0
    7.7667   -4.1417    0.0000 C   0  0  0  0  0  0  0  0  0  0  0  0
    4.6792   -1.6042    0.0000 C   0  0  0  0  0  0  0  0  0  0  0  0
    6.3917   -1.1292    0.0000 C   0  0  0  0  0  0  0  0  0  0  0  0
    2.5167   -3.1792    0.0000 P   0  0  0  0  0  0  0  0  0  0  0  0
    4.0417   -3.5500    0.0000 P   0  0  0  0  0  0  0  0  0  0  0  0
    6.3917   -2.6667    0.0000 N   0  0  0  0  0  0  0  0  0  0  0  0
    3.2917   -3.5500    0.0000 O   0  0  0  0  0  0  0  0  0  0  0  0
    7.7667   -1.2875    0.0000 N   0  0  0  0  0  0  0  0  0  0  0  0
    4.4417   -0.8167    0.0000 C   0  0  0  0  0  0  0  0  0  0  0  0
    7.3417   -4.9917    0.0000 C   0  0  0  0  0  0  0  0  0  0  0  0
    5.7542   -2.2792    0.0000 C   0  0  0  0  0  0  0  0  0  0  0  0
    8.2042   -1.8917    0.0000 C   0  0  0  0  0  0  0  0  0  0  0  0
    4.0167   -2.0792    0.0000 O   0  0  0  0  0  0  0  0  0  0  0  0
    6.6667   -3.5500    0.0000 O   0  0  0  0  0  0  0  0  0  0  0  0
    5.5917   -4.1417    0.0000 C   0  0  0  0  0  0  0  0  0  0  0  0
    3.3542   -1.5917    0.0000 C   0  0  0  0  0  0  0  0  0  0  0  0
    3.6167   -0.8125    0.0000 C   0  0  0  0  0  0  0  0  0  0  0  0
    6.0167   -4.9917    0.0000 C   0  0  0  0  0  0  0  0  0  0  0  0
    1.7542   -3.1792    0.0000 O   0  0  0  0  0  0  0  0  0  0  0  0
    4.8042   -3.5500    0.0000 O   0  0  0  0  0  0  0  0  0  0  0  0
    5.5917   -3.5500    0.0000 C   0  0  0  0  0  0  0  0  0  0  0  0
    1.9417   -1.8667    0.0000 C   0  0  0  0  0  0  0  0  0  0  0  0
    6.3917   -0.3917    0.0000 N   0  0  0  0  0  0  0  0  0  0  0  0
    2.5167   -2.4292    0.0000 O   0  0  0  0  0  0  0  0  0  0  0  0
    4.0417   -2.7917    0.0000 O   0  0  0  0  0  0  0  0  0  0  0  0
    4.0417   -4.3042    0.0000 O   0  0  0  0  0  0  0  0  0  0  0  0
    2.5167   -3.9417    0.0000 O   0  0  0  0  0  0  0  0  0  0  0  0
    4.9542   -0.1167    0.0000 O   0  0  0  0  0  0  0  0  0  0  0  0
    7.8000   -5.7292    0.0000 O   0  0  0  0  0  0  0  0  0  0  0  0
    3.1042   -0.1042    0.0000 O   0  0  0  0  0  0  0  0  0  0  0  0
    5.5500   -5.7417    0.0000 O   0  0  0  0  0  0  0  0  0  0  0  0
    2.6955   -0.8393    0.0000 H   0  0  0  0  0  0  0  0  0  0  0  0
    6.5649   -3.9119    0.0000 H   0  0  0  0  0  0  0  0  0  0  0  0
    5.2425   -0.7779    0.0000 H   0  0  0  0  0  0  0  0  0  0  0  0
  2 15  1  0
  3  1  1  0
  4  3  2  0
  5  1  1  0
  6  2  1  0
  7  4  1  0
  8 11  1  0
  9 24  1  0
 10  3  1  0
 11  9  1  0
 12 16  2  0
 13  6  1  0
 14  5  1  0
 15 10  2  0
 16  1  1  0
  6 17  1  0
 18  5  1  0
 19 18  1  0
 20 17  1  0
 21 13  1  0
 22 14  1  0
 23  8  1  0
 24 25  1  0
 19 25  1  0
 20 26  1  0
 27  7  2  0
 28  8  2  0
 29  9  2  0
 30  9  1  0
 31  8  1  0
 13 32  1  1
 14 33  1  6
 21 34  1  1
 22 35  1  6
  4 12  1  0
 19 22  1  0
  7  2  1  0
 21 20  1  0
 26 23  1  0
 20 36  1  1
 19 37  1  6
  6 38  1  1
M  END

> <chembl_id>
CHEMBL2369151

> <chembl_pref_name>
None

$$$$

     RDKit          2D

 27 29  0  0  0  0  0  0  0  0999 V2000
    1.4441   -0.2533    0.0000 C   0  0  0  0  0  0  0  0  0  0  0  0
    0.6594   -0.5082    0.0000 C   0  0  0  0  0  0  0  0  0  0  0  0
    0.4045   -1.2928    0.0000 C   0  0  0  0  0  0  0  0  0  0  0  0
    0.8894   -1.9603    0.0000 O   0  0  0  0  0  0  0  0  0  0  0  0
   -0.4205   -1.2928    0.0000 C   0  0  0  0  0  0  0  0  0  0  0  0
   -0.9054   -1.9603    0.0000 O   0  0  0  0  0  0  0  0  0  0  0  0
   -0.6754   -0.5082    0.0000 C   0  0  0  0  0  0  0  0  0  0  0  0
   -0.0080   -0.0233    0.0000 O   0  0  0  0  0  0  0  0  0  0  0  0
   -1.4601   -0.2533    0.0000 N   0  0  0  0  0  0  0  0  0  0  0  0
   -2.1275   -0.7382    0.0000 C   0  0  0  0  0  0  0  0  0  0  0  0
   -2.7949   -0.2533    0.0000 N   0  0  0  0  0  0  0  0  0  0  0  0
   -2.5400    0.5313    0.0000 C   0  0  0  0  0  0  0  0  0  0  0  0
   -2.9525    1.2458    0.0000 C   0  0  0  0  0  0  0  0  0  0  0  0
   -3.7775    1.2458    0.0000 N   0  0  0  0  0  0  0  0  0  0  0  0
   -2.5400    1.9603    0.0000 N   0  0  0  0  0  0  0  0  0  0  0  0
   -1.7150    1.9603    0.0000 C   0  0  0  0  0  0  0  0  0  0  0  0
   -1.3025    1.2458    0.0000 N   0  0  0  0  0  0  0  0  0  0  0  0
   -1.7150    0.5313    0.0000 C   0  0  0  0  0  0  0  0  0  0  0  0
    2.8243   -0.6231    0.0000 P   0  0  0  0  0  0  0  0  0  0  0  0
    3.6212   -0.4096    0.0000 O   0  0  0  0  0  0  0  0  0  0  0  0
    2.0274   -0.8366    0.0000 C   0  0  0  0  0  0  0  0  0  0  0  0
    2.6108    1.3405    0.0000 O   0  0  0  0  0  0  0  0  0  0  0  0
    3.0378   -1.4200    0.0000 O   0  0  0  0  0  0  0  0  0  0  0  0
    2.6108    0.1738    0.0000 C   0  0  0  0  0  0  0  0  0  0  0  0
    3.1941    0.7571    0.0000 P   0  0  0  0  0  0  0  0  0  0  0  0
    3.7775    1.3405    0.0000 O   0  0  0  0  0  0  0  0  0  0  0  0
    3.7775    0.1738    0.0000 O   0  0  0  0  0  0  0  0  0  0  0  0
  2  1  1  6
  2  3  1  0
  3  4  1  1
  3  5  1  0
  5  6  1  1
  5  7  1  0
  7  8  1  0
  2  8  1  0
  7  9  1  6
  9 10  1  0
 10 11  2  0
 11 12  1  0
 12 13  1  0
 13 14  1  0
 13 15  2  0
 15 16  1  0
 16 17  2  0
 17 18  1  0
 12 18  2  0
  9 18  1  0
 19 20  2  0
 19 21  1  0
 19 23  1  0
 19 24  1  0
 24 25  1  0
 22 25  1  0
 25 26  2  0
 25 27  1  0
  1 21  1  0
M  END

> <chembl_id>
CHEMBL602149

> <chembl_pref_name>
None

$$$$
