121310009
  -OEChem-08232014072D

 39 41  0     1  0  0  0  0  0999 V2000
    2.8080   -3.0869    0.0000 P   0  0  0  0  0  0  0  0  0  0  0  0
    4.3160    0.0858    0.0000 O   0  0  0  0  0  0  0  0  0  0  0  0
    6.8557   -0.4098    0.0000 O   0  0  0  0  0  0  0  0  0  0  0  0
    5.5800   -2.1721    0.0000 O   0  0  0  0  0  0  0  0  0  0  0  0
    3.6160   -2.4977    0.0000 O   0  0  0  0  0  0  0  0  0  0  0  0
    2.0000   -3.6761    0.0000 O   0  0  0  0  0  0  0  0  0  0  0  0
    3.3972   -3.8949    0.0000 O   0  0  0  0  0  0  0  0  0  0  0  0
    2.2188   -2.2789    0.0000 O   0  0  0  0  0  0  0  0  0  0  0  0
    4.0096    1.6517    0.0000 N   0  0  0  0  0  0  0  0  0  0  0  0
    3.1436    1.1517    0.0000 N   0  0  0  0  0  0  0  0  0  0  0  0
    6.8825    1.5748    0.0000 N   0  0  0  0  0  0  0  0  0  0  0  0
    2.2776    2.6517    0.0000 N   0  0  0  0  0  0  0  0  0  0  0  0
    3.1436    4.1517    0.0000 N   0  0  0  0  0  0  0  0  0  0  0  0
    5.2665    0.3965    0.0000 C   0  0  2  0  0  0  0  0  0  0  0  0
    5.8557   -0.4115    0.0000 C   0  0  1  0  0  0  0  0  0  0  0  0
    5.2693   -1.2216    0.0000 C   0  0  1  0  0  0  0  0  0  0  0  0
    4.3178   -0.9142    0.0000 C   0  0  1  0  0  0  0  0  0  0  0  0
    4.9559    1.3470    0.0000 C   0  0  0  0  0  0  0  0  0  0  0  0
    3.5098   -1.5034    0.0000 C   0  0  0  0  0  0  0  0  0  0  0  0
    5.5395    2.1517    0.0000 C   0  0  0  0  0  0  0  0  0  0  0  0
    6.0745    0.9857    0.0000 C   0  0  0  0  0  0  0  0  0  0  0  0
    4.0096    2.6517    0.0000 C   0  0  0  0  0  0  0  0  0  0  0  0
    4.9559    2.9565    0.0000 C   0  0  0  0  0  0  0  0  0  0  0  0
    3.1436    3.1517    0.0000 C   0  0  0  0  0  0  0  0  0  0  0  0
    2.2776    1.6517    0.0000 C   0  0  0  0  0  0  0  0  0  0  0  0
    6.1382   -0.9635    0.0000 H   0  0  0  0  0  0  0  0  0  0  0  0
    4.8317   -1.6607    0.0000 H   0  0  0  0  0  0  0  0  0  0  0  0
    3.7648   -0.6337    0.0000 H   0  0  0  0  0  0  0  0  0  0  0  0
    3.2370   -0.9466    0.0000 H   0  0  0  0  0  0  0  0  0  0  0  0
    2.9141   -1.6753    0.0000 H   0  0  0  0  0  0  0  0  0  0  0  0
    6.1595    2.1517    0.0000 H   0  0  0  0  0  0  0  0  0  0  0  0
    7.1666   -0.9462    0.0000 H   0  0  0  0  0  0  0  0  0  0  0  0
    6.1867   -2.2999    0.0000 H   0  0  0  0  0  0  0  0  0  0  0  0
    5.1485    3.5458    0.0000 H   0  0  0  0  0  0  0  0  0  0  0  0
    1.7407    1.3417    0.0000 H   0  0  0  0  0  0  0  0  0  0  0  0
    2.6067    4.4617    0.0000 H   0  0  0  0  0  0  0  0  0  0  0  0
    3.6806    4.4617    0.0000 H   0  0  0  0  0  0  0  0  0  0  0  0
    2.0659   -4.2926    0.0000 H   0  0  0  0  0  0  0  0  0  0  0  0
    3.1460   -4.4617    0.0000 H   0  0  0  0  0  0  0  0  0  0  0  0
  1  5  1  0  0  0  0
  1  6  1  0  0  0  0
  1  7  1  0  0  0  0
  1  8  2  0  0  0  0
  2 14  1  0  0  0  0
  2 17  1  0  0  0  0
 15  3  1  6  0  0  0
  3 32  1  0  0  0  0
 16  4  1  6  0  0  0
  4 33  1  0  0  0  0
  5 19  1  0  0  0  0
  6 38  1  0  0  0  0
  7 39  1  0  0  0  0
  9 10  1  0  0  0  0
  9 18  1  0  0  0  0
  9 22  1  0  0  0  0
 10 25  2  0  0  0  0
 11 21  3  0  0  0  0
 12 24  2  0  0  0  0
 12 25  1  0  0  0  0
 13 24  1  0  0  0  0
 13 36  1  0  0  0  0
 13 37  1  0  0  0  0
 14 15  1  0  0  0  0
 14 18  1  0  0  0  0
 14 21  1  6  0  0  0
 15 16  1  0  0  0  0
 15 26  1  0  0  0  0
 16 17  1  0  0  0  0
 16 27  1  0  0  0  0
 17 19  1  1  0  0  0
 17 28  1  0  0  0  0
 18 20  2  0  0  0  0
 19 29  1  0  0  0  0
 19 30  1  0  0  0  0
 20 23  1  0  0  0  0
 20 31  1  0  0  0  0
 22 23  2  0  0  0  0
 22 24  1  0  0  0  0
 23 34  1  0  0  0  0
 25 35  1  0  0  0  0
M  END
> <PUBCHEM_COMPOUND_CID>
121310009

> <PUBCHEM_COMPOUND_CANONICALIZED>
1

> <PUBCHEM_CACTVS_COMPLEXITY>
610

> <PUBCHEM_CACTVS_HBOND_ACCEPTOR>
11

> <PUBCHEM_CACTVS_HBOND_DONOR>
5

> <PUBCHEM_CACTVS_ROTATABLE_BOND>
4

> <PUBCHEM_CACTVS_SUBSKEYS>
AAADccBzuAIAAAAAAAAAAAAAAAAAAWJAAAAsAAAAAAAAAFgB4AAAHgAYCCAADFyhlgY18LZIFxCyRSZjZISShC8xkqAd2CA4fJiL/uLAuJmX8AhnyAPb6C/w8PcOAAAAAAAAAAAAAAAAAAAAAAAAAAAAAA==

> <PUBCHEM_IUPAC_OPENEYE_NAME>
[(2R,3S,4R,5R)-5-(4-aminopyrrolo[2,1-f][1,2,4]triazin-7-yl)-5-cyano-3,4-dihydroxy-tetrahydrofuran-2-yl]methyl dihydrogen phosphate

> <PUBCHEM_IUPAC_CAS_NAME>
[(2R,3S,4R,5R)-5-(4-amino-7-pyrrolo[2,1-f][1,2,4]triazinyl)-5-cyano-3,4-dihydroxy-2-oxolanyl]methyl dihydrogen phosphate

> <PUBCHEM_IUPAC_NAME_MARKUP>
[(2<I>R</I>,3<I>S</I>,4<I>R</I>,5<I>R</I>)-5-(4-aminopyrrolo[2,1-f][1,2,4]triazin-7-yl)-5-cyano-3,4-dihydroxyoxolan-2-yl]methyl dihydrogen phosphate

> <PUBCHEM_IUPAC_NAME>
[(2R,3S,4R,5R)-5-(4-aminopyrrolo[2,1-f][1,2,4]triazin-7-yl)-5-cyano-3,4-dihydroxyoxolan-2-yl]methyl dihydrogen phosphate

> <PUBCHEM_IUPAC_SYSTEMATIC_NAME>
[(2R,3S,4R,5R)-5-(4-azanylpyrrolo[2,1-f][1,2,4]triazin-7-yl)-5-cyano-3,4-bis(oxidanyl)oxolan-2-yl]methyl dihydrogen phosphate

> <PUBCHEM_IUPAC_TRADITIONAL_NAME>
[(2R,3S,4R,5R)-5-(4-aminopyrrolo[2,1-f][1,2,4]triazin-7-yl)-5-cyano-3,4-dihydroxy-tetrahydrofuran-2-yl]methyl dihydrogen phosphate

> <PUBCHEM_IUPAC_INCHI>
InChI=1S/C12H14N5O7P/c13-4-12(8-2-1-6-11(14)15-5-16-17(6)8)10(19)9(18)7(24-12)3-23-25(20,21)22/h1-2,5,7,9-10,18-19H,3H2,(H2,14,15,16)(H2,20,21,22)/t7-,9-,10-,12+/m1/s1

> <PUBCHEM_IUPAC_INCHIKEY>
ZBHOHJWLOOFLMW-LTGWCKQJSA-N

> <PUBCHEM_XLOGP3_AA>
-3.1

> <PUBCHEM_EXACT_MASS>
371.063085

> <PUBCHEM_MOLECULAR_FORMULA>
C12H14N5O7P

> <PUBCHEM_MOLECULAR_WEIGHT>
371.24

> <PUBCHEM_OPENEYE_CAN_SMILES>
C1=C2C(=NC=NN2C(=C1)C3(C(C(C(O3)COP(=O)(O)O)O)O)C#N)N

> <PUBCHEM_OPENEYE_ISO_SMILES>
C1=C2C(=NC=NN2C(=C1)[C@]3([C@@H]([C@@H]([C@H](O3)COP(=O)(O)O)O)O)C#N)N

> <PUBCHEM_CACTVS_TPSA>
196

> <PUBCHEM_MONOISOTOPIC_WEIGHT>
371.063085

> <PUBCHEM_TOTAL_CHARGE>
0

> <PUBCHEM_HEAVY_ATOM_COUNT>
25

> <PUBCHEM_ATOM_DEF_STEREO_COUNT>
4

> <PUBCHEM_ATOM_UDEF_STEREO_COUNT>
0

> <PUBCHEM_BOND_DEF_STEREO_COUNT>
0

> <PUBCHEM_BOND_UDEF_STEREO_COUNT>
0

> <PUBCHEM_ISOTOPIC_ATOM_COUNT>
0

> <PUBCHEM_COMPONENT_COUNT>
1

> <PUBCHEM_CACTVS_TAUTO_COUNT>
-1

> <PUBCHEM_COORDINATE_TYPE>
1
5
255

> <PUBCHEM_BONDANNOTATIONS>
10  25  8
12  24  8
12  25  8
14  21  6
17  19  5
18  20  8
20  23  8
22  23  8
22  24  8
15  3  6
16  4  6
9  10  8
9  18  8
9  22  8

$$$$
135329187
  -OEChem-08232014072D

 41 43  0     1  0  0  0  0  0999 V2000
    3.3748   -3.0869    0.0000 P   0  0  0  0  0  0  0  0  0  0  0  0
    4.8828    0.0858    0.0000 O   0  0  0  0  0  0  0  0  0  0  0  0
    7.4226   -0.4098    0.0000 O   0  0  0  0  0  0  0  0  0  0  0  0
    6.1468   -2.1721    0.0000 O   0  0  0  0  0  0  0  0  0  0  0  0
    4.1828   -2.4977    0.0000 O   0  0  0  0  0  0  0  0  0  0  0  0
    2.7856   -2.2789    0.0000 O   0  0  0  0  0  0  0  0  0  0  0  0
    4.5765    1.6517    0.0000 N   0  0  0  0  0  0  0  0  0  0  0  0
    3.7105    1.1517    0.0000 N   0  0  0  0  0  0  0  0  0  0  0  0
    7.4494    1.5748    0.0000 N   0  0  0  0  0  0  0  0  0  0  0  0
    2.8444    2.6517    0.0000 N   0  0  0  0  0  0  0  0  0  0  0  0
    3.7105    4.1517    0.0000 N   0  0  0  0  0  0  0  0  0  0  0  0
    2.5668   -3.6761    0.0000 N   0  0  0  0  0  0  0  0  0  0  0  0
    3.9640   -3.8949    0.0000 N   0  0  0  0  0  0  0  0  0  0  0  0
    5.8334    0.3965    0.0000 C   0  0  2  0  0  0  0  0  0  0  0  0
    6.4226   -0.4115    0.0000 C   0  0  1  0  0  0  0  0  0  0  0  0
    5.8362   -1.2216    0.0000 C   0  0  1  0  0  0  0  0  0  0  0  0
    4.8846   -0.9142    0.0000 C   0  0  1  0  0  0  0  0  0  0  0  0
    5.5227    1.3470    0.0000 C   0  0  0  0  0  0  0  0  0  0  0  0
    4.0766   -1.5034    0.0000 C   0  0  0  0  0  0  0  0  0  0  0  0
    6.6414    0.9857    0.0000 C   0  0  0  0  0  0  0  0  0  0  0  0
    6.1063    2.1517    0.0000 C   0  0  0  0  0  0  0  0  0  0  0  0
    4.5765    2.6517    0.0000 C   0  0  0  0  0  0  0  0  0  0  0  0
    5.5227    2.9565    0.0000 C   0  0  0  0  0  0  0  0  0  0  0  0
    3.7105    3.1517    0.0000 C   0  0  0  0  0  0  0  0  0  0  0  0
    2.8444    1.6517    0.0000 C   0  0  0  0  0  0  0  0  0  0  0  0
    6.7050   -0.9635    0.0000 H   0  0  0  0  0  0  0  0  0  0  0  0
    6.4487   -1.3175    0.0000 H   0  0  0  0  0  0  0  0  0  0  0  0
    4.3317   -0.6337    0.0000 H   0  0  0  0  0  0  0  0  0  0  0  0
    3.8038   -0.9466    0.0000 H   0  0  0  0  0  0  0  0  0  0  0  0
    3.4809   -1.6753    0.0000 H   0  0  0  0  0  0  0  0  0  0  0  0
    6.7263    2.1517    0.0000 H   0  0  0  0  0  0  0  0  0  0  0  0
    7.7335   -0.9462    0.0000 H   0  0  0  0  0  0  0  0  0  0  0  0
    6.7535   -2.2999    0.0000 H   0  0  0  0  0  0  0  0  0  0  0  0
    5.7153    3.5458    0.0000 H   0  0  0  0  0  0  0  0  0  0  0  0
    2.3075    1.3417    0.0000 H   0  0  0  0  0  0  0  0  0  0  0  0
    3.1735    4.4617    0.0000 H   0  0  0  0  0  0  0  0  0  0  0  0
    4.2474    4.4617    0.0000 H   0  0  0  0  0  0  0  0  0  0  0  0
    2.6327   -4.2926    0.0000 H   0  0  0  0  0  0  0  0  0  0  0  0
    2.0000   -3.4249    0.0000 H   0  0  0  0  0  0  0  0  0  0  0  0
    4.5805   -3.8290    0.0000 H   0  0  0  0  0  0  0  0  0  0  0  0
    3.7128   -4.4617    0.0000 H   0  0  0  0  0  0  0  0  0  0  0  0
  1  5  1  0  0  0  0
  1  6  2  0  0  0  0
  1 12  1  0  0  0  0
  1 13  1  0  0  0  0
  2 14  1  0  0  0  0
  2 17  1  0  0  0  0
 15  3  1  6  0  0  0
  3 32  1  0  0  0  0
 16  4  1  6  0  0  0
  4 33  1  0  0  0  0
  5 19  1  0  0  0  0
  7  8  1  0  0  0  0
  7 18  1  0  0  0  0
  7 22  1  0  0  0  0
  8 25  2  0  0  0  0
  9 20  3  0  0  0  0
 10 24  2  0  0  0  0
 10 25  1  0  0  0  0
 11 24  1  0  0  0  0
 11 36  1  0  0  0  0
 11 37  1  0  0  0  0
 12 38  1  0  0  0  0
 12 39  1  0  0  0  0
 13 40  1  0  0  0  0
 13 41  1  0  0  0  0
 14 15  1  0  0  0  0
 14 18  1  0  0  0  0
 14 20  1  6  0  0  0
 15 16  1  0  0  0  0
 15 26  1  0  0  0  0
 16 17  1  0  0  0  0
 16 27  1  0  0  0  0
 17 19  1  1  0  0  0
 17 28  1  0  0  0  0
 18 21  2  0  0  0  0
 19 29  1  0  0  0  0
 19 30  1  0  0  0  0
 21 23  1  0  0  0  0
 21 31  1  0  0  0  0
 22 23  2  0  0  0  0
 22 24  1  0  0  0  0
 23 34  1  0  0  0  0
 25 35  1  0  0  0  0
M  END
> <PUBCHEM_COMPOUND_CID>
135329187

> <PUBCHEM_COMPOUND_CANONICALIZED>
1

> <PUBCHEM_CACTVS_COMPLEXITY>
610

> <PUBCHEM_CACTVS_HBOND_ACCEPTOR>
11

> <PUBCHEM_CACTVS_HBOND_DONOR>
5

> <PUBCHEM_CACTVS_ROTATABLE_BOND>
4

> <PUBCHEM_CACTVS_SUBSKEYS>
AAADceBzuAIAAAAAAAAAAAAAAAAAAWJAAAAsAAAAAAAAAFgB4AAAHgAYiCAADFyhlgY18LZIFxCyRSZjZISShC8xkqAd2CA4fJiL/uLAuJmX8AhnyAPb6C/w8PcOAAAAAAAAAAAAAAAAAAAAAAAAAAAAAA==

> <PUBCHEM_IUPAC_OPENEYE_NAME>
(2R,3R,4S,5R)-2-(4-aminopyrrolo[2,1-f][1,2,4]triazin-7-yl)-5-(diaminophosphoryloxymethyl)-3,4-dihydroxy-tetrahydrofuran-2-carbonitrile

> <PUBCHEM_IUPAC_CAS_NAME>
(2R,3R,4S,5R)-2-(4-amino-7-pyrrolo[2,1-f][1,2,4]triazinyl)-5-(diaminophosphoryloxymethyl)-3,4-dihydroxy-2-oxolanecarbonitrile

> <PUBCHEM_IUPAC_NAME_MARKUP>
(2<I>R</I>,3<I>R</I>,4<I>S</I>,5<I>R</I>)-2-(4-aminopyrrolo[2,1-f][1,2,4]triazin-7-yl)-5-(diaminophosphoryloxymethyl)-3,4-dihydroxyoxolane-2-carbonitrile

> <PUBCHEM_IUPAC_NAME>
(2R,3R,4S,5R)-2-(4-aminopyrrolo[2,1-f][1,2,4]triazin-7-yl)-5-(diaminophosphoryloxymethyl)-3,4-dihydroxyoxolane-2-carbonitrile

> <PUBCHEM_IUPAC_SYSTEMATIC_NAME>
(2R,3R,4S,5R)-2-(4-azanylpyrrolo[2,1-f][1,2,4]triazin-7-yl)-5-[bis(azanyl)phosphoryloxymethyl]-3,4-bis(oxidanyl)oxolane-2-carbonitrile

> <PUBCHEM_IUPAC_TRADITIONAL_NAME>
(2R,3R,4S,5R)-2-(4-aminopyrrolo[2,1-f][1,2,4]triazin-7-yl)-5-(diaminophosphoryloxymethyl)-3,4-dihydroxy-tetrahydrofuran-2-carbonitrile

> <PUBCHEM_IUPAC_INCHI>
InChI=1S/C12H16N7O5P/c13-4-12(8-2-1-6-11(14)17-5-18-19(6)8)10(21)9(20)7(24-12)3-23-25(15,16)22/h1-2,5,7,9-10,20-21H,3H2,(H2,14,17,18)(H4,15,16,22)/t7-,9-,10-,12+/m1/s1

> <PUBCHEM_IUPAC_INCHIKEY>
REFCRTHNBDEBJT-LTGWCKQJSA-N

> <PUBCHEM_XLOGP3_AA>
-3.6

> <PUBCHEM_EXACT_MASS>
369.095054

> <PUBCHEM_MOLECULAR_FORMULA>
C12H16N7O5P

> <PUBCHEM_MOLECULAR_WEIGHT>
369.27

> <PUBCHEM_OPENEYE_CAN_SMILES>
C1=C2C(=NC=NN2C(=C1)C3(C(C(C(O3)COP(=O)(N)N)O)O)C#N)N

> <PUBCHEM_OPENEYE_ISO_SMILES>
C1=C2C(=NC=NN2C(=C1)[C@]3([C@@H]([C@@H]([C@H](O3)COP(=O)(N)N)O)O)C#N)N

> <PUBCHEM_CACTVS_TPSA>
208

> <PUBCHEM_MONOISOTOPIC_WEIGHT>
369.095054

> <PUBCHEM_TOTAL_CHARGE>
0

> <PUBCHEM_HEAVY_ATOM_COUNT>
25

> <PUBCHEM_ATOM_DEF_STEREO_COUNT>
4

> <PUBCHEM_ATOM_UDEF_STEREO_COUNT>
0

> <PUBCHEM_BOND_DEF_STEREO_COUNT>
0

> <PUBCHEM_BOND_UDEF_STEREO_COUNT>
0

> <PUBCHEM_ISOTOPIC_ATOM_COUNT>
0

> <PUBCHEM_COMPONENT_COUNT>
1

> <PUBCHEM_CACTVS_TAUTO_COUNT>
-1

> <PUBCHEM_COORDINATE_TYPE>
1
5
255

> <PUBCHEM_BONDANNOTATIONS>
10  24  8
10  25  8
14  20  6
17  19  5
18  21  8
21  23  8
22  23  8
22  24  8
15  3  6
16  4  6
7  18  8
7  22  8
7  8  8
8  25  8

$$$$
134443515
  -OEChem-08232014072D

 36 38  0     1  0  0  0  0  0999 V2000
    2.9142   -3.0945    0.0000 P   0  3  0  0  0  0  0  0  0  0  0  0
    4.4223    0.0782    0.0000 O   0  0  0  0  0  0  0  0  0  0  0  0
    6.9620   -0.4174    0.0000 O   0  0  0  0  0  0  0  0  0  0  0  0
    3.7222   -2.5053    0.0000 O   0  0  0  0  0  0  0  0  0  0  0  0
    3.0205   -4.0888    0.0000 O   0  0  0  0  0  0  0  0  0  0  0  0
    2.0000   -2.6893    0.0000 O   0  0  0  0  0  0  0  0  0  0  0  0
    4.1159    1.6441    0.0000 N   0  0  0  0  0  0  0  0  0  0  0  0
    3.2499    1.1441    0.0000 N   0  0  0  0  0  0  0  0  0  0  0  0
    6.9888    1.5672    0.0000 N   0  0  0  0  0  0  0  0  0  0  0  0
    2.3838    2.6441    0.0000 N   0  0  0  0  0  0  0  0  0  0  0  0
    3.2499    4.1441    0.0000 N   0  0  0  0  0  0  0  0  0  0  0  0
    5.3728    0.3889    0.0000 C   0  0  2  0  0  0  0  0  0  0  0  0
    5.9620   -0.4191    0.0000 C   0  0  1  0  0  0  0  0  0  0  0  0
    5.3756   -1.2292    0.0000 C   0  0  0  0  0  0  0  0  0  0  0  0
    4.4240   -0.9218    0.0000 C   0  0  1  0  0  0  0  0  0  0  0  0
    5.0621    1.3394    0.0000 C   0  0  0  0  0  0  0  0  0  0  0  0
    3.6160   -1.5110    0.0000 C   0  0  0  0  0  0  0  0  0  0  0  0
    5.6457    2.1441    0.0000 C   0  0  0  0  0  0  0  0  0  0  0  0
    6.1808    0.9781    0.0000 C   0  0  0  0  0  0  0  0  0  0  0  0
    4.1159    2.6441    0.0000 C   0  0  0  0  0  0  0  0  0  0  0  0
    5.0621    2.9489    0.0000 C   0  0  0  0  0  0  0  0  0  0  0  0
    3.2499    3.1441    0.0000 C   0  0  0  0  0  0  0  0  0  0  0  0
    2.3838    1.6441    0.0000 C   0  0  0  0  0  0  0  0  0  0  0  0
    6.2425    0.1338    0.0000 H   0  0  0  0  0  0  0  0  0  0  0  0
    5.1244   -1.7960    0.0000 H   0  0  0  0  0  0  0  0  0  0  0  0
    5.9131   -1.5382    0.0000 H   0  0  0  0  0  0  0  0  0  0  0  0
    3.8711   -0.6413    0.0000 H   0  0  0  0  0  0  0  0  0  0  0  0
    3.3432   -0.9542    0.0000 H   0  0  0  0  0  0  0  0  0  0  0  0
    3.0203   -1.6829    0.0000 H   0  0  0  0  0  0  0  0  0  0  0  0
    6.2657    2.1441    0.0000 H   0  0  0  0  0  0  0  0  0  0  0  0
    7.2729   -0.9538    0.0000 H   0  0  0  0  0  0  0  0  0  0  0  0
    5.2547    3.5382    0.0000 H   0  0  0  0  0  0  0  0  0  0  0  0
    1.8469    1.3341    0.0000 H   0  0  0  0  0  0  0  0  0  0  0  0
    2.7129    4.4541    0.0000 H   0  0  0  0  0  0  0  0  0  0  0  0
    3.7868    4.4541    0.0000 H   0  0  0  0  0  0  0  0  0  0  0  0
    2.5195   -4.4541    0.0000 H   0  0  0  0  0  0  0  0  0  0  0  0
  1  4  1  0  0  0  0
  1  5  1  0  0  0  0
  1  6  2  0  0  0  0
  2 12  1  0  0  0  0
  2 15  1  0  0  0  0
 13  3  1  6  0  0  0
  3 31  1  0  0  0  0
  4 17  1  0  0  0  0
  5 36  1  0  0  0  0
  7  8  1  0  0  0  0
  7 16  1  0  0  0  0
  7 20  1  0  0  0  0
  8 23  2  0  0  0  0
  9 19  3  0  0  0  0
 10 22  2  0  0  0  0
 10 23  1  0  0  0  0
 11 22  1  0  0  0  0
 11 34  1  0  0  0  0
 11 35  1  0  0  0  0
 12 13  1  0  0  0  0
 12 16  1  0  0  0  0
 12 19  1  6  0  0  0
 13 14  1  0  0  0  0
 13 24  1  0  0  0  0
 14 15  1  0  0  0  0
 14 25  1  0  0  0  0
 14 26  1  0  0  0  0
 15 17  1  1  0  0  0
 15 27  1  0  0  0  0
 16 18  2  0  0  0  0
 17 28  1  0  0  0  0
 17 29  1  0  0  0  0
 18 21  1  0  0  0  0
 18 30  1  0  0  0  0
 20 21  2  0  0  0  0
 20 22  1  0  0  0  0
 21 32  1  0  0  0  0
 23 33  1  0  0  0  0
M  CHG  1   1   1
M  END
> <PUBCHEM_COMPOUND_CID>
134443515

> <PUBCHEM_COMPOUND_CANONICALIZED>
1

> <PUBCHEM_CACTVS_COMPLEXITY>
529

> <PUBCHEM_CACTVS_HBOND_ACCEPTOR>
9

> <PUBCHEM_CACTVS_HBOND_DONOR>
3

> <PUBCHEM_CACTVS_ROTATABLE_BOND>
4

> <PUBCHEM_CACTVS_SUBSKEYS>
AAADccBzuAIAAAAAAAAAAAAAAAAAAWJAAAAsAAAAAAAAAFgB4AAAHgAYCCAADFyhlgY18LZIFxCyRSZjZISShC8xkqAd2CA4fJiL/uLAuJmX8AhnyAPb6C/Q8PcOAAAAAAAAAAAAAAAAAAAAAAAAAAAAAA==

> <PUBCHEM_IUPAC_OPENEYE_NAME>
[(2S,4R,5R)-5-(4-aminopyrrolo[2,1-f][1,2,4]triazin-7-yl)-5-cyano-4-hydroxy-tetrahydrofuran-2-yl]methoxy-hydroxy-oxo-phosphonium

> <PUBCHEM_IUPAC_CAS_NAME>
[(2S,4R,5R)-5-(4-amino-7-pyrrolo[2,1-f][1,2,4]triazinyl)-5-cyano-4-hydroxy-2-oxolanyl]methoxy-hydroxy-oxophosphonium

> <PUBCHEM_IUPAC_NAME_MARKUP>
[(2<I>S</I>,4<I>R</I>,5<I>R</I>)-5-(4-aminopyrrolo[2,1-f][1,2,4]triazin-7-yl)-5-cyano-4-hydroxyoxolan-2-yl]methoxy-hydroxy-oxophosphanium

> <PUBCHEM_IUPAC_NAME>
[(2S,4R,5R)-5-(4-aminopyrrolo[2,1-f][1,2,4]triazin-7-yl)-5-cyano-4-hydroxyoxolan-2-yl]methoxy-hydroxy-oxophosphanium

> <PUBCHEM_IUPAC_SYSTEMATIC_NAME>
[(2S,4R,5R)-5-(4-azanylpyrrolo[2,1-f][1,2,4]triazin-7-yl)-5-cyano-4-oxidanyl-oxolan-2-yl]methoxy-oxidanyl-oxidanylidene-phosphanium

> <PUBCHEM_IUPAC_TRADITIONAL_NAME>
[(2S,4R,5R)-5-(4-aminopyrrolo[2,1-f][1,2,4]triazin-7-yl)-5-cyano-4-hydroxy-tetrahydrofuran-2-yl]methoxy-hydroxy-keto-phosphonium

> <PUBCHEM_IUPAC_INCHI>
InChI=1S/C12H12N5O5P/c13-5-12(10(18)3-7(22-12)4-21-23(19)20)9-2-1-8-11(14)15-6-16-17(8)9/h1-2,6-7,10,18H,3-4H2,(H2-,14,15,16,19,20)/p+1/t7-,10+,12-/m0/s1

> <PUBCHEM_IUPAC_INCHIKEY>
NAUQOELBWVMVBE-KOLSJAJHSA-O

> <PUBCHEM_XLOGP3_AA>
-0.9

> <PUBCHEM_EXACT_MASS>
338.065431

> <PUBCHEM_MOLECULAR_FORMULA>
C12H13N5O5P+

> <PUBCHEM_MOLECULAR_WEIGHT>
338.24

> <PUBCHEM_OPENEYE_CAN_SMILES>
C1C(OC(C1O)(C#N)C2=CC=C3N2N=CN=C3N)CO[P+](=O)O

> <PUBCHEM_OPENEYE_ISO_SMILES>
C1[C@H](O[C@@]([C@@H]1O)(C#N)C2=CC=C3N2N=CN=C3N)CO[P+](=O)O

> <PUBCHEM_CACTVS_TPSA>
156

> <PUBCHEM_MONOISOTOPIC_WEIGHT>
338.065431

> <PUBCHEM_TOTAL_CHARGE>
1

> <PUBCHEM_HEAVY_ATOM_COUNT>
23

> <PUBCHEM_ATOM_DEF_STEREO_COUNT>
3

> <PUBCHEM_ATOM_UDEF_STEREO_COUNT>
0

> <PUBCHEM_BOND_DEF_STEREO_COUNT>
0

> <PUBCHEM_BOND_UDEF_STEREO_COUNT>
0

> <PUBCHEM_ISOTOPIC_ATOM_COUNT>
0

> <PUBCHEM_COMPONENT_COUNT>
1

> <PUBCHEM_CACTVS_TAUTO_COUNT>
-1

> <PUBCHEM_COORDINATE_TYPE>
1
5
255

> <PUBCHEM_BONDANNOTATIONS>
10  22  8
10  23  8
12  19  6
15  17  5
16  18  8
18  21  8
20  21  8
20  22  8
13  3  6
7  16  8
7  20  8
7  8  8
8  23  8

$$$$
126719099
  -OEChem-08232014072D

 42 44  0     1  0  0  0  0  0999 V2000
    3.5098   -2.3797    0.0000 P   0  0  3  0  0  0  0  0  0  0  0  0
    2.8080   -3.9632    0.0000 P   0  3  0  0  0  0  0  0  0  0  0  0
    5.0178    0.7930    0.0000 O   0  0  0  0  0  0  0  0  0  0  0  0
    7.5575    0.2974    0.0000 O   0  0  0  0  0  0  0  0  0  0  0  0
    6.2818   -1.4649    0.0000 O   0  0  0  0  0  0  0  0  0  0  0  0
    4.3178   -1.7905    0.0000 O   0  0  0  0  0  0  0  0  0  0  0  0
    2.7018   -2.9689    0.0000 O   0  0  0  0  0  0  0  0  0  0  0  0
    4.0989   -3.1877    0.0000 O   0  0  0  0  0  0  0  0  0  0  0  0
    2.9206   -1.5717    0.0000 O   0  0  0  0  0  0  0  0  0  0  0  0
    2.0000   -4.5524    0.0000 O   0  0  0  0  0  0  0  0  0  0  0  0
    3.7222   -4.3684    0.0000 O   0  0  0  0  0  0  0  0  0  0  0  0
    4.7114    2.3589    0.0000 N   0  0  0  0  0  0  0  0  0  0  0  0
    3.8454    1.8589    0.0000 N   0  0  0  0  0  0  0  0  0  0  0  0
    7.5843    2.2820    0.0000 N   0  0  0  0  0  0  0  0  0  0  0  0
    2.9794    3.3589    0.0000 N   0  0  0  0  0  0  0  0  0  0  0  0
    3.8454    4.8589    0.0000 N   0  0  0  0  0  0  0  0  0  0  0  0
    5.9683    1.1037    0.0000 C   0  0  2  0  0  0  0  0  0  0  0  0
    6.5575    0.2957    0.0000 C   0  0  1  0  0  0  0  0  0  0  0  0
    5.9711   -0.5144    0.0000 C   0  0  1  0  0  0  0  0  0  0  0  0
    5.0195   -0.2070    0.0000 C   0  0  1  0  0  0  0  0  0  0  0  0
    5.6576    2.0542    0.0000 C   0  0  0  0  0  0  0  0  0  0  0  0
    4.2115   -0.7962    0.0000 C   0  0  0  0  0  0  0  0  0  0  0  0
    6.7763    1.6928    0.0000 C   0  0  0  0  0  0  0  0  0  0  0  0
    6.2412    2.8589    0.0000 C   0  0  0  0  0  0  0  0  0  0  0  0
    4.7114    3.3589    0.0000 C   0  0  0  0  0  0  0  0  0  0  0  0
    5.6576    3.6636    0.0000 C   0  0  0  0  0  0  0  0  0  0  0  0
    3.8454    3.8589    0.0000 C   0  0  0  0  0  0  0  0  0  0  0  0
    2.9794    2.3589    0.0000 C   0  0  0  0  0  0  0  0  0  0  0  0
    6.8399   -0.2563    0.0000 H   0  0  0  0  0  0  0  0  0  0  0  0
    5.5334   -0.9535    0.0000 H   0  0  0  0  0  0  0  0  0  0  0  0
    4.4666    0.0735    0.0000 H   0  0  0  0  0  0  0  0  0  0  0  0
    3.9387   -0.2394    0.0000 H   0  0  0  0  0  0  0  0  0  0  0  0
    3.6158   -0.9681    0.0000 H   0  0  0  0  0  0  0  0  0  0  0  0
    6.8612    2.8589    0.0000 H   0  0  0  0  0  0  0  0  0  0  0  0
    7.8684   -0.2390    0.0000 H   0  0  0  0  0  0  0  0  0  0  0  0
    6.8884   -1.5928    0.0000 H   0  0  0  0  0  0  0  0  0  0  0  0
    5.8502    4.2530    0.0000 H   0  0  0  0  0  0  0  0  0  0  0  0
    2.4424    2.0489    0.0000 H   0  0  0  0  0  0  0  0  0  0  0  0
    3.3084    5.1689    0.0000 H   0  0  0  0  0  0  0  0  0  0  0  0
    4.3823    5.1689    0.0000 H   0  0  0  0  0  0  0  0  0  0  0  0
    4.7154   -3.1218    0.0000 H   0  0  0  0  0  0  0  0  0  0  0  0
    2.0659   -5.1689    0.0000 H   0  0  0  0  0  0  0  0  0  0  0  0
  1  6  1  0  0  0  0
  1  7  1  0  0  0  0
  1  8  1  0  0  0  0
  1  9  2  0  0  0  0
  2  7  1  0  0  0  0
  2 10  1  0  0  0  0
  2 11  2  0  0  0  0
  3 17  1  0  0  0  0
  3 20  1  0  0  0  0
 18  4  1  6  0  0  0
  4 35  1  0  0  0  0
 19  5  1  6  0  0  0
  5 36  1  0  0  0  0
  6 22  1  0  0  0  0
  8 41  1  0  0  0  0
 10 42  1  0  0  0  0
 12 13  1  0  0  0  0
 12 21  1  0  0  0  0
 12 25  1  0  0  0  0
 13 28  2  0  0  0  0
 14 23  3  0  0  0  0
 15 27  2  0  0  0  0
 15 28  1  0  0  0  0
 16 27  1  0  0  0  0
 16 39  1  0  0  0  0
 16 40  1  0  0  0  0
 17 18  1  0  0  0  0
 17 21  1  0  0  0  0
 17 23  1  6  0  0  0
 18 19  1  0  0  0  0
 18 29  1  0  0  0  0
 19 20  1  0  0  0  0
 19 30  1  0  0  0  0
 20 22  1  1  0  0  0
 20 31  1  0  0  0  0
 21 24  2  0  0  0  0
 22 32  1  0  0  0  0
 22 33  1  0  0  0  0
 24 26  1  0  0  0  0
 24 34  1  0  0  0  0
 25 26  2  0  0  0  0
 25 27  1  0  0  0  0
 26 37  1  0  0  0  0
 28 38  1  0  0  0  0
M  CHG  1   2   1
M  END
> <PUBCHEM_COMPOUND_CID>
126719099

> <PUBCHEM_COMPOUND_CANONICALIZED>
1

> <PUBCHEM_CACTVS_COMPLEXITY>
721

> <PUBCHEM_CACTVS_HBOND_ACCEPTOR>
13

> <PUBCHEM_CACTVS_HBOND_DONOR>
5

> <PUBCHEM_CACTVS_ROTATABLE_BOND>
6

> <PUBCHEM_CACTVS_SUBSKEYS>
AAADccBzvAMAAAAAAAAAAAAAAAAAAWJAAAAsAAAAAAAAAFgB4AAAHgAYCCAADFyhlgY18LZIFxCyRSZjZISShC8xkqAd2CA4fJiL/uLAuJmX8AhnyAPb6C/w8PcOAAAAAAAAAAAAAAAAAAAAAAAAAAAAAA==

> <PUBCHEM_IUPAC_OPENEYE_NAME>
[[(2R,3S,4R,5R)-5-(4-aminopyrrolo[2,1-f][1,2,4]triazin-7-yl)-5-cyano-3,4-dihydroxy-tetrahydrofuran-2-yl]methoxy-hydroxy-phosphoryl]oxy-hydroxy-oxo-phosphonium

> <PUBCHEM_IUPAC_CAS_NAME>
[[(2R,3S,4R,5R)-5-(4-amino-7-pyrrolo[2,1-f][1,2,4]triazinyl)-5-cyano-3,4-dihydroxy-2-oxolanyl]methoxy-hydroxyphosphoryl]oxy-hydroxy-oxophosphonium

> <PUBCHEM_IUPAC_NAME_MARKUP>
[[(2<I>R</I>,3<I>S</I>,4<I>R</I>,5<I>R</I>)-5-(4-aminopyrrolo[2,1-f][1,2,4]triazin-7-yl)-5-cyano-3,4-dihydroxyoxolan-2-yl]methoxy-hydroxyphosphoryl]oxy-hydroxy-oxophosphanium

> <PUBCHEM_IUPAC_NAME>
[[(2R,3S,4R,5R)-5-(4-aminopyrrolo[2,1-f][1,2,4]triazin-7-yl)-5-cyano-3,4-dihydroxyoxolan-2-yl]methoxy-hydroxyphosphoryl]oxy-hydroxy-oxophosphanium

> <PUBCHEM_IUPAC_SYSTEMATIC_NAME>
[[(2R,3S,4R,5R)-5-(4-azanylpyrrolo[2,1-f][1,2,4]triazin-7-yl)-5-cyano-3,4-bis(oxidanyl)oxolan-2-yl]methoxy-oxidanyl-phosphoryl]oxy-oxidanyl-oxidanylidene-phosphanium

> <PUBCHEM_IUPAC_TRADITIONAL_NAME>
[[(2R,3S,4R,5R)-5-(4-aminopyrrolo[2,1-f][1,2,4]triazin-7-yl)-5-cyano-3,4-dihydroxy-tetrahydrofuran-2-yl]methoxy-hydroxy-phosphoryl]oxy-hydroxy-keto-phosphonium

> <PUBCHEM_IUPAC_INCHI>
InChI=1S/C12H13N5O9P2/c13-4-12(8-2-1-6-11(14)15-5-16-17(6)8)10(19)9(18)7(25-12)3-24-28(22,23)26-27(20)21/h1-2,5,7,9-10,18-19H,3H2,(H3-,14,15,16,20,21,22,23)/p+1/t7-,9-,10-,12+/m1/s1

> <PUBCHEM_IUPAC_INCHIKEY>
ISCYGTQEYNIMDL-LTGWCKQJSA-O

> <PUBCHEM_XLOGP3_AA>
-3

> <PUBCHEM_EXACT_MASS>
434.026676

> <PUBCHEM_MOLECULAR_FORMULA>
C12H14N5O9P2+

> <PUBCHEM_MOLECULAR_WEIGHT>
434.22

> <PUBCHEM_OPENEYE_CAN_SMILES>
C1=C2C(=NC=NN2C(=C1)C3(C(C(C(O3)COP(=O)(O)O[P+](=O)O)O)O)C#N)N

> <PUBCHEM_OPENEYE_ISO_SMILES>
C1=C2C(=NC=NN2C(=C1)[C@]3([C@@H]([C@@H]([C@H](O3)COP(=O)(O)O[P+](=O)O)O)O)C#N)N

> <PUBCHEM_CACTVS_TPSA>
223

> <PUBCHEM_MONOISOTOPIC_WEIGHT>
434.026676

> <PUBCHEM_TOTAL_CHARGE>
1

> <PUBCHEM_HEAVY_ATOM_COUNT>
28

> <PUBCHEM_ATOM_DEF_STEREO_COUNT>
4

> <PUBCHEM_ATOM_UDEF_STEREO_COUNT>
0

> <PUBCHEM_BOND_DEF_STEREO_COUNT>
0

> <PUBCHEM_BOND_UDEF_STEREO_COUNT>
0

> <PUBCHEM_ISOTOPIC_ATOM_COUNT>
0

> <PUBCHEM_COMPONENT_COUNT>
1

> <PUBCHEM_CACTVS_TAUTO_COUNT>
-1

> <PUBCHEM_COORDINATE_TYPE>
1
5
255

> <PUBCHEM_BONDANNOTATIONS>
12  13  8
12  21  8
12  25  8
13  28  8
15  27  8
15  28  8
17  23  6
20  22  5
21  24  8
24  26  8
25  26  8
25  27  8
18  4  6
19  5  6

$$$$
121310010
  -OEChem-08232014072D

 44 46  0     1  0  0  0  0  0999 V2000
    4.0614   -2.3027    0.0000 P   0  0  3  0  0  0  0  0  0  0  0  0
    3.3596   -3.8863    0.0000 P   0  0  0  0  0  0  0  0  0  0  0  0
    5.5694    0.8700    0.0000 O   0  0  0  0  0  0  0  0  0  0  0  0
    8.1091    0.3744    0.0000 O   0  0  0  0  0  0  0  0  0  0  0  0
    6.8334   -1.3879    0.0000 O   0  0  0  0  0  0  0  0  0  0  0  0
    4.8694   -1.7136    0.0000 O   0  0  0  0  0  0  0  0  0  0  0  0
    3.2534   -2.8919    0.0000 O   0  0  0  0  0  0  0  0  0  0  0  0
    4.6506   -3.1107    0.0000 O   0  0  0  0  0  0  0  0  0  0  0  0
    3.4722   -1.4947    0.0000 O   0  0  0  0  0  0  0  0  0  0  0  0
    3.4659   -4.8806    0.0000 O   0  0  0  0  0  0  0  0  0  0  0  0
    2.3653   -3.9925    0.0000 O   0  0  0  0  0  0  0  0  0  0  0  0
    4.3540   -3.7800    0.0000 O   0  0  0  0  0  0  0  0  0  0  0  0
    5.2630    2.4359    0.0000 N   0  0  0  0  0  0  0  0  0  0  0  0
    4.3970    1.9359    0.0000 N   0  0  0  0  0  0  0  0  0  0  0  0
    8.1359    2.3590    0.0000 N   0  0  0  0  0  0  0  0  0  0  0  0
    3.5310    3.4359    0.0000 N   0  0  0  0  0  0  0  0  0  0  0  0
    4.3970    4.9359    0.0000 N   0  0  0  0  0  0  0  0  0  0  0  0
    6.5199    1.1806    0.0000 C   0  0  2  0  0  0  0  0  0  0  0  0
    7.1091    0.3726    0.0000 C   0  0  1  0  0  0  0  0  0  0  0  0
    6.5227   -0.4374    0.0000 C   0  0  1  0  0  0  0  0  0  0  0  0
    5.5711   -0.1300    0.0000 C   0  0  1  0  0  0  0  0  0  0  0  0
    6.2093    2.1312    0.0000 C   0  0  0  0  0  0  0  0  0  0  0  0
    4.7631   -0.7192    0.0000 C   0  0  0  0  0  0  0  0  0  0  0  0
    7.3279    1.7698    0.0000 C   0  0  0  0  0  0  0  0  0  0  0  0
    6.7929    2.9359    0.0000 C   0  0  0  0  0  0  0  0  0  0  0  0
    5.2630    3.4359    0.0000 C   0  0  0  0  0  0  0  0  0  0  0  0
    6.2093    3.7406    0.0000 C   0  0  0  0  0  0  0  0  0  0  0  0
    4.3970    3.9359    0.0000 C   0  0  0  0  0  0  0  0  0  0  0  0
    3.5310    2.4359    0.0000 C   0  0  0  0  0  0  0  0  0  0  0  0
    7.3896    0.9255    0.0000 H   0  0  0  0  0  0  0  0  0  0  0  0
    6.0851   -0.8766    0.0000 H   0  0  0  0  0  0  0  0  0  0  0  0
    5.0182    0.1505    0.0000 H   0  0  0  0  0  0  0  0  0  0  0  0
    4.4904   -0.1624    0.0000 H   0  0  0  0  0  0  0  0  0  0  0  0
    4.1674   -0.8911    0.0000 H   0  0  0  0  0  0  0  0  0  0  0  0
    7.4129    2.9359    0.0000 H   0  0  0  0  0  0  0  0  0  0  0  0
    8.4200   -0.1620    0.0000 H   0  0  0  0  0  0  0  0  0  0  0  0
    7.4401   -1.5158    0.0000 H   0  0  0  0  0  0  0  0  0  0  0  0
    6.4019    4.3299    0.0000 H   0  0  0  0  0  0  0  0  0  0  0  0
    2.9940    2.1259    0.0000 H   0  0  0  0  0  0  0  0  0  0  0  0
    3.8601    5.2459    0.0000 H   0  0  0  0  0  0  0  0  0  0  0  0
    4.9340    5.2459    0.0000 H   0  0  0  0  0  0  0  0  0  0  0  0
    5.2671   -3.0449    0.0000 H   0  0  0  0  0  0  0  0  0  0  0  0
    2.9649   -5.2459    0.0000 H   0  0  0  0  0  0  0  0  0  0  0  0
    2.0000   -3.4916    0.0000 H   0  0  0  0  0  0  0  0  0  0  0  0
  1  6  1  0  0  0  0
  1  7  1  0  0  0  0
  1  8  1  0  0  0  0
  1  9  2  0  0  0  0
  2  7  1  0  0  0  0
  2 10  1  0  0  0  0
  2 11  1  0  0  0  0
  2 12  2  0  0  0  0
  3 18  1  0  0  0  0
  3 21  1  0  0  0  0
 19  4  1  6  0  0  0
  4 36  1  0  0  0  0
 20  5  1  6  0  0  0
  5 37  1  0  0  0  0
  6 23  1  0  0  0  0
  8 42  1  0  0  0  0
 10 43  1  0  0  0  0
 11 44  1  0  0  0  0
 13 14  1  0  0  0  0
 13 22  1  0  0  0  0
 13 26  1  0  0  0  0
 14 29  2  0  0  0  0
 15 24  3  0  0  0  0
 16 28  2  0  0  0  0
 16 29  1  0  0  0  0
 17 28  1  0  0  0  0
 17 40  1  0  0  0  0
 17 41  1  0  0  0  0
 18 19  1  0  0  0  0
 18 22  1  0  0  0  0
 18 24  1  6  0  0  0
 19 20  1  0  0  0  0
 19 30  1  0  0  0  0
 20 21  1  0  0  0  0
 20 31  1  0  0  0  0
 21 23  1  1  0  0  0
 21 32  1  0  0  0  0
 22 25  2  0  0  0  0
 23 33  1  0  0  0  0
 23 34  1  0  0  0  0
 25 27  1  0  0  0  0
 25 35  1  0  0  0  0
 26 27  2  0  0  0  0
 26 28  1  0  0  0  0
 27 38  1  0  0  0  0
 29 39  1  0  0  0  0
M  END
> <PUBCHEM_COMPOUND_CID>
121310010

> <PUBCHEM_COMPOUND_CANONICALIZED>
1

> <PUBCHEM_CACTVS_COMPLEXITY>
773

> <PUBCHEM_CACTVS_HBOND_ACCEPTOR>
14

> <PUBCHEM_CACTVS_HBOND_DONOR>
6

> <PUBCHEM_CACTVS_ROTATABLE_BOND>
6

> <PUBCHEM_CACTVS_SUBSKEYS>
AAADccBzvAMAAAAAAAAAAAAAAAAAAWJAAAAsAAAAAAAAAFgB4AAAHgAYCCAADFyhlgY18LZIFxCyRSZjZISShC8xkqAd2CA4fJiL/uLAuJmX8AhnyAPb6C/w8PcOAAAAAAAAAAAAAAAAAAAAAAAAAAAAAA==

> <PUBCHEM_IUPAC_OPENEYE_NAME>
[(2R,3S,4R,5R)-5-(4-aminopyrrolo[2,1-f][1,2,4]triazin-7-yl)-5-cyano-3,4-dihydroxy-tetrahydrofuran-2-yl]methyl phosphono hydrogen phosphate

> <PUBCHEM_IUPAC_CAS_NAME>
[(2R,3S,4R,5R)-5-(4-amino-7-pyrrolo[2,1-f][1,2,4]triazinyl)-5-cyano-3,4-dihydroxy-2-oxolanyl]methyl phosphono hydrogen phosphate

> <PUBCHEM_IUPAC_NAME_MARKUP>
[(2<I>R</I>,3<I>S</I>,4<I>R</I>,5<I>R</I>)-5-(4-aminopyrrolo[2,1-f][1,2,4]triazin-7-yl)-5-cyano-3,4-dihydroxyoxolan-2-yl]methyl phosphono hydrogen phosphate

> <PUBCHEM_IUPAC_NAME>
[(2R,3S,4R,5R)-5-(4-aminopyrrolo[2,1-f][1,2,4]triazin-7-yl)-5-cyano-3,4-dihydroxyoxolan-2-yl]methyl phosphono hydrogen phosphate

> <PUBCHEM_IUPAC_SYSTEMATIC_NAME>
[(2R,3S,4R,5R)-5-(4-azanylpyrrolo[2,1-f][1,2,4]triazin-7-yl)-5-cyano-3,4-bis(oxidanyl)oxolan-2-yl]methyl phosphono hydrogen phosphate

> <PUBCHEM_IUPAC_TRADITIONAL_NAME>
[(2R,3S,4R,5R)-5-(4-aminopyrrolo[2,1-f][1,2,4]triazin-7-yl)-5-cyano-3,4-dihydroxy-tetrahydrofuran-2-yl]methyl phosphono hydrogen phosphate

> <PUBCHEM_IUPAC_INCHI>
InChI=1S/C12H15N5O10P2/c13-4-12(8-2-1-6-11(14)15-5-16-17(6)8)10(19)9(18)7(26-12)3-25-29(23,24)27-28(20,21)22/h1-2,5,7,9-10,18-19H,3H2,(H,23,24)(H2,14,15,16)(H2,20,21,22)/t7-,9-,10-,12+/m1/s1

> <PUBCHEM_IUPAC_INCHIKEY>
FTBPQCZJBIZRNA-LTGWCKQJSA-N

> <PUBCHEM_XLOGP3_AA>
-4.2

> <PUBCHEM_EXACT_MASS>
451.029416

> <PUBCHEM_MOLECULAR_FORMULA>
C12H15N5O10P2

> <PUBCHEM_MOLECULAR_WEIGHT>
451.22

> <PUBCHEM_OPENEYE_CAN_SMILES>
C1=C2C(=NC=NN2C(=C1)C3(C(C(C(O3)COP(=O)(O)OP(=O)(O)O)O)O)C#N)N

> <PUBCHEM_OPENEYE_ISO_SMILES>
C1=C2C(=NC=NN2C(=C1)[C@]3([C@@H]([C@@H]([C@H](O3)COP(=O)(O)OP(=O)(O)O)O)O)C#N)N

> <PUBCHEM_CACTVS_TPSA>
243

> <PUBCHEM_MONOISOTOPIC_WEIGHT>
451.029416

> <PUBCHEM_TOTAL_CHARGE>
0

> <PUBCHEM_HEAVY_ATOM_COUNT>
29

> <PUBCHEM_ATOM_DEF_STEREO_COUNT>
4

> <PUBCHEM_ATOM_UDEF_STEREO_COUNT>
0

> <PUBCHEM_BOND_DEF_STEREO_COUNT>
0

> <PUBCHEM_BOND_UDEF_STEREO_COUNT>
0

> <PUBCHEM_ISOTOPIC_ATOM_COUNT>
0

> <PUBCHEM_COMPONENT_COUNT>
1

> <PUBCHEM_CACTVS_TAUTO_COUNT>
-1

> <PUBCHEM_COORDINATE_TYPE>
1
5
255

> <PUBCHEM_BONDANNOTATIONS>
13  14  8
13  22  8
13  26  8
14  29  8
16  28  8
16  29  8
18  24  6
21  23  5
22  25  8
25  27  8
26  27  8
26  28  8
19  4  6
20  5  6

$$$$
