
     RDKit          3D

 30 34  0  0  0  0  0  0  0  0999 V2000
    0.3788   -1.5994    1.4109 C   0  0  0  0  0  0  0  0  0  0  0  0
   -0.6408   -0.9201    0.4833 C   0  0  2  0  0  0  0  0  0  0  0  0
   -1.2174    0.0971    1.2010 C   0  0  0  0  0  0  0  0  0  0  0  0
   -2.7334    0.1271    1.0470 C   0  0  0  0  0  0  0  0  0  0  0  0
   -2.6086   -0.0600   -0.5487 C   0  0  2  0  0  0  0  0  0  0  0  0
   -4.2273    0.2089   -0.9994 C   0  0  2  0  0  0  0  0  0  0  0  0
   -4.0732    1.8140   -0.7490 C   0  0  0  0  0  0  0  0  0  0  0  0
   -5.4963    2.3493   -0.5841 C   0  0  0  0  0  0  0  0  0  0  0  0
   -5.6852    2.1642    0.9018 C   0  0  0  0  0  0  0  0  0  0  0  0
   -5.1166    3.1072    1.5417 O   0  0  0  0  0  0  0  0  0  0  0  0
   -5.3405    0.7649    1.2155 C   0  0  0  0  0  0  0  0  0  0  0  0
   -4.9418   -0.1094    0.3845 C   0  0  0  0  0  0  0  0  0  0  0  0
   -5.0731   -1.5883    0.4902 C   0  0  0  0  0  0  0  0  0  0  0  0
   -3.6689   -2.0086    0.6768 C   0  0  0  0  0  0  0  0  0  0  0  0
   -2.8267   -1.7160   -0.6697 C   0  0  2  0  0  0  0  0  0  0  0  0
   -1.4273   -2.2594    0.1129 C   0  0  1  0  0  0  0  0  0  0  0  0
   -0.7231   -2.5257   -1.3408 C   0  0  0  0  0  0  0  0  0  0  0  0
    0.6648   -2.1303   -0.9902 C   0  0  0  0  0  0  0  0  0  0  0  0
    0.1550   -0.5625   -0.8800 C   0  0  2  0  0  0  0  0  0  0  0  0
    1.4202   -0.0771   -0.1337 O   0  0  0  0  0  0  0  0  0  0  0  0
    2.6244   -0.5661   -0.5529 C   0  0  0  0  0  0  0  0  0  0  0  0
    2.6682   -1.8155   -0.6553 O   0  0  0  0  0  0  0  0  0  0  0  0
    3.8046    0.2163   -0.9676 C   0  0  0  0  0  0  0  0  0  0  0  0
    3.9905    1.3053    0.0519 C   0  0  0  0  0  0  0  0  0  0  0  0
    5.2930    1.1077    0.7441 C   0  0  0  0  0  0  0  0  0  0  0  0
    6.1646    2.1861    0.6861 C   0  0  0  0  0  0  0  0  0  0  0  0
    7.5227    2.0658    0.7752 C   0  0  0  0  0  0  0  0  0  0  0  0
    8.0497    0.7798    0.7620 C   0  0  0  0  0  0  0  0  0  0  0  0
    7.2147   -0.2315    1.2214 C   0  0  0  0  0  0  0  0  0  0  0  0
    5.8492   -0.1237    0.9868 C   0  0  0  0  0  0  0  0  0  0  0  0
  2  1  1  1
  2  3  1  0
  3  4  1  0
  5  4  1  1
  5  6  1  0
  6  7  1  1
  7  8  1  0
  8  9  1  0
  9 10  2  0
  9 11  1  0
 11 12  2  0
 12 13  1  0
 13 14  1  0
 15 14  1  1
 15 16  1  0
 16 17  1  6
 17 18  1  0
 18 19  1  0
 19 20  1  1
 20 21  1  0
 21 22  2  0
 21 23  1  0
 23 24  1  0
 24 25  1  0
 25 26  2  0
 26 27  1  0
 27 28  2  0
 28 29  1  0
 29 30  2  0
 16  2  1  0
 30 25  1  0
 19  2  1  0
 15  5  1  0
 12  6  1  0
M  END
>  <zinc_id>  (2) 
ZINC000000625044

>  <smiles>  (2) 
C[C@]12CC[C@@H]3[C@@H]4CCC(=O)C=C4CC[C@@H]3[C@H]1CC[C@@H]2OC(=O)CCc1ccccc1

$$$$

     RDKit          2D

 30 34  0  0  0  0  0  0  0  0999 V2000
   -0.4432   -0.8175    0.0000 C   0  0  0  0  0  0  0  0  0  0  0  0
    0.6503    0.2093    0.0000 C   0  0  0  0  0  0  0  0  0  0  0  0
    1.1435   -1.2072    0.0000 C   0  0  0  0  0  0  0  0  0  0  0  0
    2.6170   -1.4884    0.0000 C   0  0  0  0  0  0  0  0  0  0  0  0
    3.5971   -0.3529    0.0000 C   0  0  0  0  0  0  0  0  0  0  0  0
    5.0706   -0.6340    0.0000 C   0  0  0  0  0  0  0  0  0  0  0  0
    5.5638   -2.0506    0.0000 C   0  0  0  0  0  0  0  0  0  0  0  0
    7.0372   -2.3317    0.0000 C   0  0  0  0  0  0  0  0  0  0  0  0
    8.0174   -1.1963    0.0000 C   0  0  0  0  0  0  0  0  0  0  0  0
    9.4908   -1.4774    0.0000 O   0  0  0  0  0  0  0  0  0  0  0  0
    7.5241    0.2203    0.0000 C   0  0  0  0  0  0  0  0  0  0  0  0
    6.0507    0.5014    0.0000 C   0  0  0  0  0  0  0  0  0  0  0  0
    5.5575    1.9180    0.0000 C   0  0  0  0  0  0  0  0  0  0  0  0
    4.0840    2.1991    0.0000 C   0  0  0  0  0  0  0  0  0  0  0  0
    3.1039    1.0637    0.0000 C   0  0  0  0  0  0  0  0  0  0  0  0
    1.6305    1.3448    0.0000 C   0  0  0  0  0  0  0  0  0  0  0  0
    0.8535    2.6279    0.0000 C   0  0  0  0  0  0  0  0  0  0  0  0
   -0.6069    2.2854    0.0000 C   0  0  0  0  0  0  0  0  0  0  0  0
   -0.7325    0.7907    0.0000 C   0  0  0  0  0  0  0  0  0  0  0  0
   -2.0156    0.0137    0.0000 O   0  0  0  0  0  0  0  0  0  0  0  0
   -3.3300    0.7363    0.0000 C   0  0  0  0  0  0  0  0  0  0  0  0
   -3.3614    2.2360    0.0000 O   0  0  0  0  0  0  0  0  0  0  0  0
   -4.6131   -0.0407    0.0000 C   0  0  0  0  0  0  0  0  0  0  0  0
   -5.9275    0.6820    0.0000 C   0  0  0  0  0  0  0  0  0  0  0  0
   -7.2106   -0.0950    0.0000 C   0  0  0  0  0  0  0  0  0  0  0  0
   -8.5250    0.6277    0.0000 C   0  0  0  0  0  0  0  0  0  0  0  0
   -9.8081   -0.1493    0.0000 C   0  0  0  0  0  0  0  0  0  0  0  0
   -9.7767   -1.6490    0.0000 C   0  0  0  0  0  0  0  0  0  0  0  0
   -8.4623   -2.3717    0.0000 C   0  0  0  0  0  0  0  0  0  0  0  0
   -7.1792   -1.5947    0.0000 C   0  0  0  0  0  0  0  0  0  0  0  0
  2  1  1  1
  2  3  1  0
  3  4  1  0
  5  4  1  1
  5  6  1  0
  6  7  1  1
  7  8  1  0
  8  9  1  0
  9 10  2  0
  9 11  1  0
 11 12  2  0
 12 13  1  0
 13 14  1  0
 15 14  1  1
 15 16  1  0
 16 17  1  1
 17 18  1  0
 18 19  1  0
 19 20  1  1
 20 21  1  0
 21 22  2  0
 21 23  1  0
 23 24  1  0
 24 25  1  0
 25 26  2  0
 26 27  1  0
 27 28  2  0
 28 29  1  0
 29 30  2  0
 16  2  1  0
 30 25  1  0
 19  2  1  0
 15  5  1  0
 12  6  1  0
M  END
>  <zinc_id>  (3) 
ZINC000003831193

>  <smiles>  (3) 
C[C@]12CC[C@@H]3[C@@H]4CCC(=O)C=C4CC[C@@H]3[C@@H]1CC[C@@H]2OC(=O)CCc1ccccc1

$$$$

     RDKit          3D

 30 34  0  0  0  0  0  0  0  0999 V2000
   -0.7649   -1.8513    1.9729 C   0  0  0  0  0  0  0  0  0  0  0  0
   -0.6947   -1.1404    0.7193 C   0  0  2  0  0  0  0  0  0  0  0  0
   -0.7997    0.2263    0.8653 C   0  0  0  0  0  0  0  0  0  0  0  0
   -2.2567    0.4343    1.1981 C   0  0  0  0  0  0  0  0  0  0  0  0
   -2.5490    0.2938   -0.3872 C   0  0  2  0  0  0  0  0  0  0  0  0
   -4.1250    0.9222   -0.4294 C   0  0  2  0  0  0  0  0  0  0  0  0
   -4.1612    1.5652    1.0781 C   0  0  0  0  0  0  0  0  0  0  0  0
   -5.4497    2.2484    1.2101 C   0  0  0  0  0  0  0  0  0  0  0  0
   -6.5532    1.5491    0.4833 C   0  0  0  0  0  0  0  0  0  0  0  0
   -7.7112    1.9175    0.8344 O   0  0  0  0  0  0  0  0  0  0  0  0
   -6.2450    0.1797    0.0396 C   0  0  0  0  0  0  0  0  0  0  0  0
   -4.9992   -0.3229    0.0340 C   0  0  0  0  0  0  0  0  0  0  0  0
   -4.6320   -1.2517    1.0696 C   0  0  0  0  0  0  0  0  0  0  0  0
   -3.2172   -1.6625    1.0783 C   0  0  0  0  0  0  0  0  0  0  0  0
   -2.9563   -1.3272   -0.4779 C   0  0  2  0  0  0  0  0  0  0  0  0
   -1.4087   -1.9850   -0.4297 C   0  0  1  0  0  0  0  0  0  0  0  0
   -0.7662   -0.9706   -1.5328 C   0  0  0  0  0  0  0  0  0  0  0  0
    0.5087   -1.7080   -1.3530 C   0  0  0  0  0  0  0  0  0  0  0  0
    0.8089   -1.6235    0.2613 C   0  0  1  0  0  0  0  0  0  0  0  0
    1.3867   -0.1973    0.0829 O   0  0  0  0  0  0  0  0  0  0  0  0
    2.5823   -0.3529   -0.6298 C   0  0  0  0  0  0  0  0  0  0  0  0
    2.7331   -1.3181   -1.4430 O   0  0  0  0  0  0  0  0  0  0  0  0
    3.8088    0.4172   -0.3688 C   0  0  0  0  0  0  0  0  0  0  0  0
    4.8390   -0.5965    0.1214 C   0  0  0  0  0  0  0  0  0  0  0  0
    6.1400    0.1436    0.1208 C   0  0  0  0  0  0  0  0  0  0  0  0
    6.3607    1.1582    1.0377 C   0  0  0  0  0  0  0  0  0  0  0  0
    7.3443    2.0985    0.8230 C   0  0  0  0  0  0  0  0  0  0  0  0
    8.1298    1.9529   -0.2992 C   0  0  0  0  0  0  0  0  0  0  0  0
    7.9555    0.8869   -1.1729 C   0  0  0  0  0  0  0  0  0  0  0  0
    6.6921    0.3144   -1.1423 C   0  0  0  0  0  0  0  0  0  0  0  0
  2  1  1  1
  2  3  1  0
  3  4  1  0
  5  4  1  1
  5  6  1  0
  6  7  1  1
  7  8  1  0
  8  9  1  0
  9 10  2  0
  9 11  1  0
 11 12  2  0
 12 13  1  0
 13 14  1  0
 15 14  1  1
 15 16  1  0
 16 17  1  6
 17 18  1  0
 18 19  1  0
 19 20  1  6
 20 21  1  0
 21 22  2  0
 21 23  1  0
 23 24  1  0
 24 25  1  0
 25 26  2  0
 26 27  1  0
 27 28  2  0
 28 29  1  0
 29 30  2  0
 16  2  1  0
 30 25  1  0
 19  2  1  0
 15  5  1  0
 12  6  1  0
M  END
>  <zinc_id>  (4) 
ZINC000253500017

>  <smiles>  (4) 
C[C@]12CC[C@@H]3[C@@H]4CCC(=O)C=C4CC[C@@H]3[C@H]1CC[C@H]2OC(=O)CCc1ccccc1

$$$$

     RDKit          2D

 30 34  0  0  0  0  0  0  0  0999 V2000
   -0.4432   -0.8175    0.0000 C   0  0  0  0  0  0  0  0  0  0  0  0
    0.6503    0.2093    0.0000 C   0  0  0  0  0  0  0  0  0  0  0  0
    1.1435   -1.2072    0.0000 C   0  0  0  0  0  0  0  0  0  0  0  0
    2.6170   -1.4884    0.0000 C   0  0  0  0  0  0  0  0  0  0  0  0
    3.5971   -0.3529    0.0000 C   0  0  0  0  0  0  0  0  0  0  0  0
    5.0706   -0.6340    0.0000 C   0  0  0  0  0  0  0  0  0  0  0  0
    5.5638   -2.0506    0.0000 C   0  0  0  0  0  0  0  0  0  0  0  0
    7.0372   -2.3317    0.0000 C   0  0  0  0  0  0  0  0  0  0  0  0
    8.0174   -1.1963    0.0000 C   0  0  0  0  0  0  0  0  0  0  0  0
    9.4908   -1.4774    0.0000 O   0  0  0  0  0  0  0  0  0  0  0  0
    7.5241    0.2203    0.0000 C   0  0  0  0  0  0  0  0  0  0  0  0
    6.0507    0.5014    0.0000 C   0  0  0  0  0  0  0  0  0  0  0  0
    5.5575    1.9180    0.0000 C   0  0  0  0  0  0  0  0  0  0  0  0
    4.0840    2.1991    0.0000 C   0  0  0  0  0  0  0  0  0  0  0  0
    3.1039    1.0637    0.0000 C   0  0  0  0  0  0  0  0  0  0  0  0
    1.6305    1.3448    0.0000 C   0  0  0  0  0  0  0  0  0  0  0  0
    0.8535    2.6279    0.0000 C   0  0  0  0  0  0  0  0  0  0  0  0
   -0.6069    2.2854    0.0000 C   0  0  0  0  0  0  0  0  0  0  0  0
   -0.7325    0.7907    0.0000 C   0  0  0  0  0  0  0  0  0  0  0  0
   -2.0156    0.0137    0.0000 O   0  0  0  0  0  0  0  0  0  0  0  0
   -3.3300    0.7363    0.0000 C   0  0  0  0  0  0  0  0  0  0  0  0
   -3.3614    2.2360    0.0000 O   0  0  0  0  0  0  0  0  0  0  0  0
   -4.6131   -0.0407    0.0000 C   0  0  0  0  0  0  0  0  0  0  0  0
   -5.9275    0.6820    0.0000 C   0  0  0  0  0  0  0  0  0  0  0  0
   -7.2106   -0.0950    0.0000 C   0  0  0  0  0  0  0  0  0  0  0  0
   -8.5250    0.6277    0.0000 C   0  0  0  0  0  0  0  0  0  0  0  0
   -9.8081   -0.1493    0.0000 C   0  0  0  0  0  0  0  0  0  0  0  0
   -9.7767   -1.6490    0.0000 C   0  0  0  0  0  0  0  0  0  0  0  0
   -8.4623   -2.3717    0.0000 C   0  0  0  0  0  0  0  0  0  0  0  0
   -7.1792   -1.5947    0.0000 C   0  0  0  0  0  0  0  0  0  0  0  0
  2  1  1  1
  2  3  1  0
  3  4  1  0
  5  4  1  1
  5  6  1  0
  6  7  1  1
  7  8  1  0
  8  9  1  0
  9 10  2  0
  9 11  1  0
 11 12  2  0
 12 13  1  0
 13 14  1  0
 15 14  1  1
 15 16  1  0
 16 17  1  1
 17 18  1  0
 18 19  1  0
 19 20  1  6
 20 21  1  0
 21 22  2  0
 21 23  1  0
 23 24  1  0
 24 25  1  0
 25 26  2  0
 26 27  1  0
 27 28  2  0
 28 29  1  0
 29 30  2  0
 16  2  1  0
 30 25  1  0
 19  2  1  0
 15  5  1  0
 12  6  1  0
M  END
>  <zinc_id>  (5) 
ZINC000253500018

>  <smiles>  (5) 
C[C@]12CC[C@@H]3[C@@H]4CCC(=O)C=C4CC[C@@H]3[C@@H]1CC[C@H]2OC(=O)CCc1ccccc1

$$$$

     RDKit          2D

 31 35  0  0  0  0  0  0  0  0999 V2000
   -0.5693    0.7648    0.0000 C   0  0  0  0  0  0  0  0  0  0  0  0
    0.5163   -0.2704    0.0000 C   0  0  0  0  0  0  0  0  0  0  0  0
    1.0204    1.1424    0.0000 C   0  0  0  0  0  0  0  0  0  0  0  0
    2.4959    1.4122    0.0000 C   0  0  0  0  0  0  0  0  0  0  0  0
    3.4674    0.2692    0.0000 C   0  0  0  0  0  0  0  0  0  0  0  0
    2.9632   -1.1435    0.0000 C   0  0  0  0  0  0  0  0  0  0  0  0
    3.9347   -2.2865    0.0000 C   0  0  0  0  0  0  0  0  0  0  0  0
    5.4102   -2.0167    0.0000 C   0  0  0  0  0  0  0  0  0  0  0  0
    5.9143   -0.6039    0.0000 C   0  0  0  0  0  0  0  0  0  0  0  0
    7.3899   -0.3341    0.0000 C   0  0  0  0  0  0  0  0  0  0  0  0
    7.8940    1.0786    0.0000 C   0  0  0  0  0  0  0  0  0  0  0  0
    9.3695    1.3484    0.0000 O   0  0  0  0  0  0  0  0  0  0  0  0
    6.9225    2.2216    0.0000 C   0  0  0  0  0  0  0  0  0  0  0  0
    5.4470    1.9518    0.0000 C   0  0  0  0  0  0  0  0  0  0  0  0
    4.9429    0.5390    0.0000 C   0  0  0  0  0  0  0  0  0  0  0  0
    3.9715    1.6820    0.0000 C   0  0  0  0  0  0  0  0  0  0  0  0
    1.4877   -1.4133    0.0000 C   0  0  0  0  0  0  0  0  0  0  0  0
    0.7009   -2.6904    0.0000 C   0  0  0  0  0  0  0  0  0  0  0  0
   -0.7568   -2.3367    0.0000 C   0  0  0  0  0  0  0  0  0  0  0  0
   -0.8709   -0.8411    0.0000 C   0  0  0  0  0  0  0  0  0  0  0  0
   -2.1480   -0.0543    0.0000 O   0  0  0  0  0  0  0  0  0  0  0  0
   -3.4679   -0.7668    0.0000 C   0  0  0  0  0  0  0  0  0  0  0  0
   -3.5108   -2.2662    0.0000 O   0  0  0  0  0  0  0  0  0  0  0  0
   -4.7450    0.0200    0.0000 C   0  0  0  0  0  0  0  0  0  0  0  0
   -6.0649   -0.6926    0.0000 C   0  0  0  0  0  0  0  0  0  0  0  0
   -7.3420    0.0943    0.0000 C   0  0  0  0  0  0  0  0  0  0  0  0
   -7.2991    1.5937    0.0000 C   0  0  0  0  0  0  0  0  0  0  0  0
   -8.5762    2.3805    0.0000 C   0  0  0  0  0  0  0  0  0  0  0  0
   -9.8962    1.6679    0.0000 C   0  0  0  0  0  0  0  0  0  0  0  0
   -9.9390    0.1685    0.0000 C   0  0  0  0  0  0  0  0  0  0  0  0
   -8.6620   -0.6183    0.0000 C   0  0  0  0  0  0  0  0  0  0  0  0
  2  1  1  6
  2  3  1  0
  3  4  1  0
  5  4  1  6
  5  6  1  0
  6  7  1  1
  7  8  1  0
  8  9  1  0
  9 10  2  0
 10 11  1  0
 11 12  2  0
 11 13  1  0
 13 14  1  0
 14 15  1  0
 15 16  1  6
  6 17  1  0
 17 18  1  6
 18 19  1  0
 19 20  1  0
 20 21  1  6
 21 22  1  0
 22 23  2  0
 22 24  1  0
 24 25  1  0
 25 26  1  0
 26 27  2  0
 27 28  1  0
 28 29  2  0
 29 30  1  0
 30 31  2  0
 17  2  1  0
 31 26  1  0
 20  2  1  0
 15  5  1  0
 15  9  1  0
M  END