6140
  -OEChem-11291912053D

 23 23  0     1  0  0  0  0  0999 V2000
   -1.5606   -1.5480   -1.0372 O   0  0  0  0  0  0  0  0  0  0  0  0
   -3.1863   -1.0236    0.4554 O   0  0  0  0  0  0  0  0  0  0  0  0
   -2.7945    1.6326   -0.1118 N   0  0  0  0  0  0  0  0  0  0  0  0
   -0.6090    0.9812    0.7905 C   0  0  0  0  0  0  0  0  0  0  0  0
   -1.6652    0.7241   -0.2957 C   0  0  1  0  0  0  0  0  0  0  0  0
    0.7593    0.4612    0.4141 C   0  0  0  0  0  0  0  0  0  0  0  0
    1.1082   -0.8355    0.7537 C   0  0  0  0  0  0  0  0  0  0  0  0
    1.6370    1.2913   -0.2633 C   0  0  0  0  0  0  0  0  0  0  0  0
   -2.2259   -0.6859   -0.2249 C   0  0  0  0  0  0  0  0  0  0  0  0
    2.3708   -1.3157    0.4062 C   0  0  0  0  0  0  0  0  0  0  0  0
    2.8996    0.8109   -0.6109 C   0  0  0  0  0  0  0  0  0  0  0  0
    3.2665   -0.4925   -0.2761 C   0  0  0  0  0  0  0  0  0  0  0  0
   -0.9180    0.5378    1.7471 H   0  0  0  0  0  0  0  0  0  0  0  0
   -0.5161    2.0589    0.9859 H   0  0  0  0  0  0  0  0  0  0  0  0
   -1.2654    0.8943   -1.3020 H   0  0  0  0  0  0  0  0  0  0  0  0
    0.4193   -1.4840    1.2872 H   0  0  0  0  0  0  0  0  0  0  0  0
    1.3595    2.3068   -0.5307 H   0  0  0  0  0  0  0  0  0  0  0  0
   -2.4744    2.5968   -0.1977 H   0  0  0  0  0  0  0  0  0  0  0  0
   -3.1587    1.5450    0.8368 H   0  0  0  0  0  0  0  0  0  0  0  0
    2.6567   -2.3305    0.6672 H   0  0  0  0  0  0  0  0  0  0  0  0
    3.5970    1.4516   -1.1428 H   0  0  0  0  0  0  0  0  0  0  0  0
    4.2496   -0.8665   -0.5468 H   0  0  0  0  0  0  0  0  0  0  0  0
   -1.9362   -2.4531   -0.9956 H   0  0  0  0  0  0  0  0  0  0  0  0
  1  9  1  0  0  0  0
  1 23  1  0  0  0  0
  2  9  2  0  0  0  0
  3  5  1  0  0  0  0
  3 18  1  0  0  0  0
  3 19  1  0  0  0  0
  4  5  1  0  0  0  0
  4  6  1  0  0  0  0
  4 13  1  0  0  0  0
  4 14  1  0  0  0  0
  5  9  1  0  0  0  0
  5 15  1  0  0  0  0
  6  7  2  0  0  0  0
  6  8  1  0  0  0  0
  7 10  1  0  0  0  0
  7 16  1  0  0  0  0
  8 11  2  0  0  0  0
  8 17  1  0  0  0  0
 10 12  2  0  0  0  0
 10 20  1  0  0  0  0
 11 12  1  0  0  0  0
 11 21  1  0  0  0  0
 12 22  1  0  0  0  0
M  END
> <DATABASE_ID>
DB00120

> <DATABASE_NAME>
drugbank

> <ORIGINAL_SOURCE>
PUBCHEM

> <ORIGINAL_SOURCE_URL>
https://pubchem.ncbi.nlm.nih.gov/rest/pug/compound/inchikey/COLNVLDHVKWLRT-QMMMGPOBSA-N/SDF?record_type=3d

> <SMILES>
N[C@@H](CC1=CC=CC=C1)C(O)=O

> <INCHI_IDENTIFIER>
InChI=1S/C9H11NO2/c10-8(9(11)12)6-7-4-2-1-3-5-7/h1-5,8H,6,10H2,(H,11,12)/t8-/m0/s1

> <INCHI_KEY>
COLNVLDHVKWLRT-QMMMGPOBSA-N

> <FORMULA>
C9H11NO2

> <MOLECULAR_WEIGHT>
165.1891

> <EXACT_MASS>
165.078978601

> <JCHEM_ACCEPTOR_COUNT>
3

> <JCHEM_ATOM_COUNT>
23

> <JCHEM_AVERAGE_POLARIZABILITY>
17.0319763846329

> <JCHEM_BIOAVAILABILITY>
1

> <JCHEM_DONOR_COUNT>
2

> <JCHEM_FORMAL_CHARGE>
0

> <JCHEM_GHOSE_FILTER>
0

> <JCHEM_IUPAC>
(2S)-2-amino-3-phenylpropanoic acid

> <ALOGPS_LOGP>
-1.35

> <JCHEM_LOGP>
-1.184438468740489

> <ALOGPS_LOGS>
-1.60

> <JCHEM_MDDR_LIKE_RULE>
0

> <JCHEM_NUMBER_OF_RINGS>
1

> <JCHEM_PHYSIOLOGICAL_CHARGE>
0

> <JCHEM_PKA_STRONGEST_ACIDIC>
2.469229772182635

> <JCHEM_PKA_STRONGEST_BASIC>
9.446936344396194

> <JCHEM_POLAR_SURFACE_AREA>
63.31999999999999

> <JCHEM_REFRACTIVITY>
45.11630000000001

> <JCHEM_ROTATABLE_BOND_COUNT>
3

> <JCHEM_RULE_OF_FIVE>
1

> <ALOGPS_SOLUBILITY>
4.14e+00 g/l

> <JCHEM_TRADITIONAL_IUPAC>
palladium(2+) (4S,5S,14R,15R)-10-acetyl-4-(2-carboxyethyl)-15-ethyl-2-(2-methoxy-2-oxoethyl)-5,9,14,19-tetramethyl-20-[(2-sulfoethyl)carbamoyl]-21,22,23,24-tetraazapentacyclo[16.2.1.1^{3,6}.1^{8,11}.1^{13,16}]tetracosa-1,3(24),6,8,10,12,16(22),17,19-nonaene-21,23-diide

> <JCHEM_VEBER_RULE>
0

> <DRUGBANK_ID>
DB00120

> <SECONDARY_ACCESSION_NUMBERS>
NUTR00044

> <DRUG_GROUPS>
approved; investigational; nutraceutical

> <GENERIC_NAME>
Phenylalanine

> <SYNONYMS>
(S)-2-Amino-3-phenylpropionic acid; (S)-alpha-Amino-beta-phenylpropionic acid; 3-phenyl-L-alanine; beta-Phenyl-L-alanine; F; Fenilalanina; L-Phenylalanine; Phe; Phenylalanine; Phenylalaninum; Î²-phenyl-L-alanine

> <PRODUCTS>
2.5% Travasol Amino Acid Injection With Electrolytes In 10% Dextrose; 2.5% Travasol Amino Acid Injection With Electrolytes In 10% Dextrose Clinimix; 2.5% Travasol Amino Acid Injection Without Electrolytes In 10% Dextrose Quickmix; 2.5%travasol Amino Acid InJ.W.eleC.W.25%dex; 2.75% Travas. Amino Acid InJ.W.elecw.25%dex; 2.75% Travasol Amino Acid Injection With Electrolytes In 25% Dextrose Quickmix; 2.75% Travasol Amino Acid Injection With Electrolytes In 5% Dextrose Quickmix; 2.75%travasol Amino Acid InJ.W.eleC.W.5%dex.; 20% Prosol; 4.25% Amino Acid Injection Without Electrolytes In 20% Dextrose Quickmix; 4.25% Travasol Amino Acid Injection With Electrolytes In 10% Dextrose; 4.25% Travasol Amino Acid Injection With Electrolytes In 20% Dextrose; 4.25% Travasol Amino Acid Injection With Electrolytes In 20% Dextrose Quickmix; 4.25% Travasol Amino Acid Injection With Electrolytes In 25% Dextrose; 4.25% Travasol Amino Acid Injection With Electrolytes In 5% Dextrose Quickmix; 4.25% Travasol Amino Acid Injection Without Electrlytes In 10% Dextrose; 4.25% Travasol Amino Acid Injection Without Electrolytes In 20% Dextrose; 4.25% Travasol Amino Acid Injection Without Electrolytes In 25% Dextrose; 4.25% Travasol Amino Acid Without Electrolytes In 5% Dextrose Quickmix; 4.25%trav. Amino Acid InJ.W.O.elect.5%dext.; 4.25%travasol Amino Acid InJ.W.elecw.5%dex.; 5% Travasol Amino Acid Injection With Electrolytes In 20% Dextrose; 5% Travasol Amino Acid Injection Without Electrolytes In 20% Dextrose; 5% Travasol Amino Acid Injection Without Electrolytes In 25% Dextrose; 8.5% Freamine III; Aminosyn; Aminosyn 10% W Electrolytes; Aminosyn 3.5% M; Aminosyn 5%; Aminosyn 7%; Aminosyn 8.5%; Aminosyn 8.5% Injection With Electrolytes; Aminosyn HF; Aminosyn II; Aminosyn II 10% With Electrolytes; Aminosyn II 5% Inj; Aminosyn II 7% Injection; Aminosyn II 7% M In 10% Dextrose(dual Chamber); Aminosyn II 7% With 10% Dextrose; Aminosyn II 7% With 50% Dextrose; Aminosyn II 8.5% Injection; Aminosyn II 8.5% M In 20% Dextrose (dual Chamber); Aminosyn II 8.5% With 50% Dextrose; Aminosyn II In Dextrose Injection; Aminosyn II and Dextrose; Aminosyn II in Dextrose; Aminosyn II with Electrolytes; Aminosyn II with Electrolytes in Dextrose with Calcium; Aminosyn RF; Aminosyn RF Injection; Aminosyn Sulfite Free; Aminosyn-PF; Aminosyn-PF 10%; Aminosyn-PF 7%; Clinimix; Clinimix 2.5% Travasol Aa Without Electrolytes In 10% Dextrose Injec; Clinimix E; Clinisol; FreAmine HBC; FreAmine III; HepatAmine; Hepatasol; Kabiven; NephrAmine; Nephramine Liq IV; Novamine; Nutrineal Pd4; Olimel 3.3% E; Olimel 4.4%; Olimel 4.4% E; Olimel 5.7%; Olimel 5.7% E; Olimel 7.6%; Olimel 7.6% E; Perikabiven; Periolimel 2.5% E; Plenamine; Premasol - sulfite-free (Amino Acid); Primene; Primene 10%; Primene 10%-liq IV; ProSol; ProcalAmine; Quick Mix 2.5% Travasol Aa With Electrolytes With 25% Dextrose Injec; RenAmin; Renamin (amino Acids) Injection; Smofkabiven; Smofkabiven Electrolyte Free; Smofkabiven Peripheral; Synthamin; Travasol; Travasol Amino Acid Inj 5.5%; Travasol Amino Acid Inj 8.5%; Travasol E; Travasol Inj Without Electrolytes 5.5%; Travasol Inj Without Electrolytes 8.5%; TrophAmine; Vamin 18 Electrolyte-free; Vamin N

> <SALTS>
Phenylalanine hydrochloride; Phenylalanine sodium

