REMARK  Name = 
REMARK                            x       y       z     vdW  Elec       q    Type
REMARK                         _______ _______ _______ _____ _____    ______ ____
ROOT
ATOM      1  C   LIG    1       -0.765  -1.851   1.973  0.00  0.00    +0.004 C 
ATOM      2  C   LIG    1       -0.695  -1.140   0.719  0.00  0.00    +0.037 C 
ATOM      3  C   LIG    1        0.809  -1.623   0.261  0.00  0.00    +0.169 C 
ATOM      4  C   LIG    1        0.509  -1.708  -1.353  0.00  0.00    +0.044 C 
ATOM      5  C   LIG    1       -0.766  -0.971  -1.533  0.00  0.00    +0.004 C 
ATOM      6  C   LIG    1       -1.409  -1.985  -0.430  0.00  0.00    +0.003 C 
ATOM      7  C   LIG    1       -2.956  -1.327  -0.478  0.00  0.00    +0.001 C 
ATOM      8  C   LIG    1       -2.549   0.294  -0.387  0.00  0.00    +0.004 C 
ATOM      9  C   LIG    1       -4.125   0.922  -0.429  0.00  0.00    +0.019 C 
ATOM     10  C   LIG    1       -4.999  -0.323   0.034  0.00  0.00    -0.042 C 
ATOM     11  C   LIG    1       -4.632  -1.252   1.070  0.00  0.00    +0.022 C 
ATOM     12  C   LIG    1       -6.245   0.180   0.040  0.00  0.00    +0.029 C 
ATOM     13  C   LIG    1       -6.553   1.549   0.483  0.00  0.00    +0.173 C 
ATOM     14  O   LIG    1       -7.711   1.917   0.834  0.00  0.00    -0.291 OA
ATOM     15  C   LIG    1       -5.450   2.248   1.210  0.00  0.00    +0.069 C 
ATOM     16  C   LIG    1       -4.161   1.565   1.078  0.00  0.00    +0.012 C 
ATOM     17  C   LIG    1       -2.257   0.434   1.198  0.00  0.00    +0.000 C 
ATOM     18  C   LIG    1       -3.217  -1.663   1.078  0.00  0.00    +0.004 C 
ATOM     19  C   LIG    1       -0.800   0.226   0.865  0.00  0.00    +0.003 C 
ENDROOT
BRANCH   3  20
ATOM     20  O   LIG    1        1.387  -0.197   0.083  0.00  0.00    -0.452 OA
BRANCH  20  21
ATOM     21  C   LIG    1        2.582  -0.353  -0.630  0.00  0.00    +0.317 C 
ATOM     22  O   LIG    1        2.733  -1.318  -1.443  0.00  0.00    -0.250 OA
BRANCH  21  23
ATOM     23  C   LIG    1        3.809   0.417  -0.369  0.00  0.00    +0.114 C 
BRANCH  23  24
ATOM     24  C   LIG    1        4.839  -0.597   0.121  0.00  0.00    +0.038 C 
BRANCH  24  25
ATOM     25  C   LIG    1        6.140   0.144   0.121  0.00  0.00    -0.022 A 
ATOM     26  C   LIG    1        6.692   0.314  -1.142  0.00  0.00    -0.004 A 
ATOM     27  C   LIG    1        7.955   0.887  -1.173  0.00  0.00    -0.000 A 
ATOM     28  C   LIG    1        8.130   1.953  -0.299  0.00  0.00    -0.000 A 
ATOM     29  C   LIG    1        7.344   2.099   0.823  0.00  0.00    -0.000 A 
ATOM     30  C   LIG    1        6.361   1.158   1.038  0.00  0.00    -0.004 A 
ENDBRANCH  24  25
ENDBRANCH  23  24
ENDBRANCH  21  23
ENDBRANCH  20  21
ENDBRANCH   3  20
TORSDOF 5
