REMARK  Name = 126719099
REMARK                            x       y       z     vdW  Elec       q    Type
REMARK                         _______ _______ _______ _____ _____    ______ ____
ROOT
ATOM      1  C   LIG    1        5.019  -0.207   0.000  0.00  0.00    +0.178 C 
ATOM      2  C   LIG    1        5.971  -0.514   0.000  0.00  0.00    +0.178 C 
ATOM      3  C   LIG    1        6.558   0.296   0.000  0.00  0.00    +0.198 C 
ATOM      4  C   LIG    1        5.968   1.104   0.000  0.00  0.00    +0.225 C 
ATOM      5  O   LIG    1        5.018   0.793   0.000  0.00  0.00    -0.343 OA
ENDROOT
BRANCH   4   6
ATOM      6  C   LIG    1        5.658   2.054   0.000  0.00  0.00    +0.092 A 
ATOM      7  C   LIG    1        6.241   2.859   0.000  0.00  0.00    +0.029 A 
ATOM      8  C   LIG    1        5.658   3.664   0.000  0.00  0.00    +0.033 A 
ATOM      9  C   LIG    1        4.711   3.359   0.000  0.00  0.00    +0.105 A 
ATOM     10  C   LIG    1        3.845   3.859   0.000  0.00  0.00    +0.144 A 
ATOM     11  N   LIG    1        2.979   3.359   0.000  0.00  0.00    -0.217 NA
ATOM     12  C   LIG    1        2.979   2.359   0.000  0.00  0.00    +0.245 A 
ATOM     13  N   LIG    1        3.845   1.859   0.000  0.00  0.00    -0.154 NA
ATOM     14  N   LIG    1        4.711   2.359   0.000  0.00  0.00    -0.228 N 
BRANCH  10  15
ATOM     15  N   LIG    1        3.845   4.859   0.000  0.00  0.00    -0.341 N 
ATOM     16  H   LIG    1        4.382   5.169   0.000  0.00  0.00    +0.144 HD
ATOM     17  H   LIG    1        3.308   5.169   0.000  0.00  0.00    +0.144 HD
ENDBRANCH  10  15
ENDBRANCH   4   6
BRANCH   4  18
ATOM     18  C   LIG    1        6.776   1.693   0.000  0.00  0.00    +0.107 C 
ATOM     19  N   LIG    1        7.584   2.282   0.000  0.00  0.00    -0.193 NA
ENDBRANCH   4  18
BRANCH   3  20
ATOM     20  O   LIG    1        7.558   0.297   0.000  0.00  0.00    -0.385 OA
ATOM     21  H   LIG    1        7.868  -0.239   0.000  0.00  0.00    +0.210 HD
ENDBRANCH   3  20
BRANCH   2  22
ATOM     22  O   LIG    1        6.282  -1.465   0.000  0.00  0.00    -0.386 OA
ATOM     23  H   LIG    1        6.888  -1.593   0.000  0.00  0.00    +0.210 HD
ENDBRANCH   2  22
BRANCH   1  24
ATOM     24  C   LIG    1        4.212  -0.796   0.000  0.00  0.00    +0.206 C 
BRANCH  24  25
ATOM     25  O   LIG    1        4.318  -1.790   0.000  0.00  0.00    -0.282 OA
BRANCH  25  26
ATOM     26  P   LIG    1        3.510  -2.380   0.000  0.00  0.00    +0.517 P 
ATOM     27  O   LIG    1        2.921  -1.572   0.000  0.00  0.00    -0.224 OA
BRANCH  26  28
ATOM     28  O   LIG    1        4.099  -3.188   0.000  0.00  0.00    -0.300 OA
ATOM     29  H   LIG    1        4.715  -3.122   0.000  0.00  0.00    +0.222 HD
ENDBRANCH  26  28
BRANCH  26  30
ATOM     30  O   LIG    1        2.702  -2.969   0.000  0.00  0.00    -0.018 OA
BRANCH  30  31
ATOM     31  P   LIG    1        2.808  -3.963   0.000  0.00  0.00    +0.762 P 
ATOM     32  O   LIG    1        3.722  -4.368   0.000  0.00  0.00    -0.009 OA
BRANCH  31  33
ATOM     33  O   LIG    1        2.000  -4.552   0.000  0.00  0.00    -0.146 OA
ATOM     34  H   LIG    1        2.066  -5.169   0.000  0.00  0.00    +0.276 HD
ENDBRANCH  31  33
ENDBRANCH  30  31
ENDBRANCH  26  30
ENDBRANCH  25  26
ENDBRANCH  24  25
ENDBRANCH   1  24
TORSDOF 12
