REMARK  Name = 
REMARK                            x       y       z     vdW  Elec       q    Type
REMARK                         _______ _______ _______ _____ _____    ______ ____
ROOT
ATOM      1  C   LIG    1        0.379  -1.599   1.411  0.00  0.00    +0.004 C 
ATOM      2  C   LIG    1       -0.641  -0.920   0.483  0.00  0.00    +0.037 C 
ATOM      3  C   LIG    1        0.155  -0.562  -0.880  0.00  0.00    +0.169 C 
ATOM      4  C   LIG    1        0.665  -2.130  -0.990  0.00  0.00    +0.044 C 
ATOM      5  C   LIG    1       -0.723  -2.526  -1.341  0.00  0.00    +0.004 C 
ATOM      6  C   LIG    1       -1.427  -2.259   0.113  0.00  0.00    +0.003 C 
ATOM      7  C   LIG    1       -2.827  -1.716  -0.670  0.00  0.00    +0.001 C 
ATOM      8  C   LIG    1       -2.609  -0.060  -0.549  0.00  0.00    +0.004 C 
ATOM      9  C   LIG    1       -4.227   0.209  -0.999  0.00  0.00    +0.019 C 
ATOM     10  C   LIG    1       -4.942  -0.109   0.385  0.00  0.00    -0.042 C 
ATOM     11  C   LIG    1       -5.073  -1.588   0.490  0.00  0.00    +0.022 C 
ATOM     12  C   LIG    1       -5.340   0.765   1.216  0.00  0.00    +0.029 C 
ATOM     13  C   LIG    1       -5.685   2.164   0.902  0.00  0.00    +0.173 C 
ATOM     14  O   LIG    1       -5.117   3.107   1.542  0.00  0.00    -0.291 OA
ATOM     15  C   LIG    1       -5.496   2.349  -0.584  0.00  0.00    +0.069 C 
ATOM     16  C   LIG    1       -4.073   1.814  -0.749  0.00  0.00    +0.012 C 
ATOM     17  C   LIG    1       -2.733   0.127   1.047  0.00  0.00    +0.000 C 
ATOM     18  C   LIG    1       -3.669  -2.009   0.677  0.00  0.00    +0.004 C 
ATOM     19  C   LIG    1       -1.217   0.097   1.201  0.00  0.00    +0.003 C 
ENDROOT
BRANCH   3  20
ATOM     20  O   LIG    1        1.420  -0.077  -0.134  0.00  0.00    -0.452 OA
BRANCH  20  21
ATOM     21  C   LIG    1        2.624  -0.566  -0.553  0.00  0.00    +0.317 C 
ATOM     22  O   LIG    1        2.668  -1.815  -0.655  0.00  0.00    -0.250 OA
BRANCH  21  23
ATOM     23  C   LIG    1        3.805   0.216  -0.968  0.00  0.00    +0.114 C 
BRANCH  23  24
ATOM     24  C   LIG    1        3.990   1.305   0.052  0.00  0.00    +0.038 C 
BRANCH  24  25
ATOM     25  C   LIG    1        5.293   1.108   0.744  0.00  0.00    -0.022 A 
ATOM     26  C   LIG    1        5.849  -0.124   0.987  0.00  0.00    -0.004 A 
ATOM     27  C   LIG    1        7.215  -0.232   1.221  0.00  0.00    -0.000 A 
ATOM     28  C   LIG    1        8.050   0.780   0.762  0.00  0.00    -0.000 A 
ATOM     29  C   LIG    1        7.523   2.066   0.775  0.00  0.00    -0.000 A 
ATOM     30  C   LIG    1        6.165   2.186   0.686  0.00  0.00    -0.004 A 
ENDBRANCH  24  25
ENDBRANCH  23  24
ENDBRANCH  21  23
ENDBRANCH  20  21
ENDBRANCH   3  20
TORSDOF 5
