REMARK  Name = 
REMARK                            x       y       z     vdW  Elec       q    Type
REMARK                         _______ _______ _______ _____ _____    ______ ____
ROOT
ATOM      1  C   LIG    1       -0.443  -0.818   0.000  0.00  0.00    +0.004 C 
ATOM      2  C   LIG    1        0.650   0.209   0.000  0.00  0.00    +0.037 C 
ATOM      3  C   LIG    1       -0.733   0.791   0.000  0.00  0.00    +0.169 C 
ATOM      4  C   LIG    1       -0.607   2.285   0.000  0.00  0.00    +0.044 C 
ATOM      5  C   LIG    1        0.854   2.628   0.000  0.00  0.00    +0.004 C 
ATOM      6  C   LIG    1        1.631   1.345   0.000  0.00  0.00    +0.003 C 
ATOM      7  C   LIG    1        3.104   1.064   0.000  0.00  0.00    +0.001 C 
ATOM      8  C   LIG    1        3.597  -0.353   0.000  0.00  0.00    +0.004 C 
ATOM      9  C   LIG    1        5.071  -0.634   0.000  0.00  0.00    +0.019 C 
ATOM     10  C   LIG    1        6.051   0.501   0.000  0.00  0.00    -0.042 C 
ATOM     11  C   LIG    1        5.558   1.918   0.000  0.00  0.00    +0.022 C 
ATOM     12  C   LIG    1        7.524   0.220   0.000  0.00  0.00    +0.029 C 
ATOM     13  C   LIG    1        8.017  -1.196   0.000  0.00  0.00    +0.173 C 
ATOM     14  O   LIG    1        9.491  -1.477   0.000  0.00  0.00    -0.291 OA
ATOM     15  C   LIG    1        7.037  -2.332   0.000  0.00  0.00    +0.069 C 
ATOM     16  C   LIG    1        5.564  -2.051   0.000  0.00  0.00    +0.012 C 
ATOM     17  C   LIG    1        2.617  -1.488   0.000  0.00  0.00    +0.000 C 
ATOM     18  C   LIG    1        4.084   2.199   0.000  0.00  0.00    +0.004 C 
ATOM     19  C   LIG    1        1.143  -1.207   0.000  0.00  0.00    +0.003 C 
ENDROOT
BRANCH   3  20
ATOM     20  O   LIG    1       -2.016   0.014   0.000  0.00  0.00    -0.452 OA
BRANCH  20  21
ATOM     21  C   LIG    1       -3.330   0.736   0.000  0.00  0.00    +0.317 C 
ATOM     22  O   LIG    1       -3.361   2.236   0.000  0.00  0.00    -0.250 OA
BRANCH  21  23
ATOM     23  C   LIG    1       -4.613  -0.041   0.000  0.00  0.00    +0.114 C 
BRANCH  23  24
ATOM     24  C   LIG    1       -5.928   0.682   0.000  0.00  0.00    +0.038 C 
BRANCH  24  25
ATOM     25  C   LIG    1       -7.211  -0.095   0.000  0.00  0.00    -0.022 A 
ATOM     26  C   LIG    1       -7.179  -1.595   0.000  0.00  0.00    -0.004 A 
ATOM     27  C   LIG    1       -8.462  -2.372   0.000  0.00  0.00    -0.000 A 
ATOM     28  C   LIG    1       -9.777  -1.649   0.000  0.00  0.00    -0.000 A 
ATOM     29  C   LIG    1       -9.808  -0.149   0.000  0.00  0.00    -0.000 A 
ATOM     30  C   LIG    1       -8.525   0.628   0.000  0.00  0.00    -0.004 A 
ENDBRANCH  24  25
ENDBRANCH  23  24
ENDBRANCH  21  23
ENDBRANCH  20  21
ENDBRANCH   3  20
TORSDOF 5
