
     RDKit          2D

 38 42  0  0  0  0  0  0  0  0999 V2000
    7.7667   -2.5125    0.0000 N   0  0  0  0  0  0  0  0  0  0  0  0
    5.7542   -1.5167    0.0000 N   0  0  0  0  0  0  0  0  0  0  0  0
    7.0542   -2.2792    0.0000 C   0  0  0  0  0  0  0  0  0  0  0  0
    7.0542   -1.5167    0.0000 C   0  0  0  0  0  0  0  0  0  0  0  0
    7.7667   -4.1417    0.0000 C   0  0  0  0  0  0  0  0  0  0  0  0
    4.6792   -1.6042    0.0000 C   0  0  0  0  0  0  0  0  0  0  0  0
    6.3917   -1.1292    0.0000 C   0  0  0  0  0  0  0  0  0  0  0  0
    2.5167   -3.1792    0.0000 P   0  0  0  0  0  0  0  0  0  0  0  0
    4.0417   -3.5500    0.0000 P   0  0  0  0  0  0  0  0  0  0  0  0
    6.3917   -2.6667    0.0000 N   0  0  0  0  0  0  0  0  0  0  0  0
    3.2917   -3.5500    0.0000 O   0  0  0  0  0  0  0  0  0  0  0  0
    7.7667   -1.2875    0.0000 N   0  0  0  0  0  0  0  0  0  0  0  0
    4.4417   -0.8167    0.0000 C   0  0  0  0  0  0  0  0  0  0  0  0
    7.3417   -4.9917    0.0000 C   0  0  0  0  0  0  0  0  0  0  0  0
    5.7542   -2.2792    0.0000 C   0  0  0  0  0  0  0  0  0  0  0  0
    8.2042   -1.8917    0.0000 C   0  0  0  0  0  0  0  0  0  0  0  0
    4.0167   -2.0792    0.0000 O   0  0  0  0  0  0  0  0  0  0  0  0
    6.6667   -3.5500    0.0000 O   0  0  0  0  0  0  0  0  0  0  0  0
    5.5917   -4.1417    0.0000 C   0  0  0  0  0  0  0  0  0  0  0  0
    3.3542   -1.5917    0.0000 C   0  0  0  0  0  0  0  0  0  0  0  0
    3.6167   -0.8125    0.0000 C   0  0  0  0  0  0  0  0  0  0  0  0
    6.0167   -4.9917    0.0000 C   0  0  0  0  0  0  0  0  0  0  0  0
    1.7542   -3.1792    0.0000 O   0  0  0  0  0  0  0  0  0  0  0  0
    4.8042   -3.5500    0.0000 O   0  0  0  0  0  0  0  0  0  0  0  0
    5.5917   -3.5500    0.0000 C   0  0  0  0  0  0  0  0  0  0  0  0
    1.9417   -1.8667    0.0000 C   0  0  0  0  0  0  0  0  0  0  0  0
    6.3917   -0.3917    0.0000 N   0  0  0  0  0  0  0  0  0  0  0  0
    2.5167   -2.4292    0.0000 O   0  0  0  0  0  0  0  0  0  0  0  0
    4.0417   -2.7917    0.0000 O   0  0  0  0  0  0  0  0  0  0  0  0
    4.0417   -4.3042    0.0000 O   0  0  0  0  0  0  0  0  0  0  0  0
    2.5167   -3.9417    0.0000 O   0  0  0  0  0  0  0  0  0  0  0  0
    4.9542   -0.1167    0.0000 O   0  0  0  0  0  0  0  0  0  0  0  0
    7.8000   -5.7292    0.0000 O   0  0  0  0  0  0  0  0  0  0  0  0
    3.1042   -0.1042    0.0000 O   0  0  0  0  0  0  0  0  0  0  0  0
    5.5500   -5.7417    0.0000 O   0  0  0  0  0  0  0  0  0  0  0  0
    2.6955   -0.8393    0.0000 H   0  0  0  0  0  0  0  0  0  0  0  0
    6.5649   -3.9119    0.0000 H   0  0  0  0  0  0  0  0  0  0  0  0
    5.2425   -0.7779    0.0000 H   0  0  0  0  0  0  0  0  0  0  0  0
  2 15  1  0
  3  1  1  0
  4  3  2  0
  5  1  1  0
  6  2  1  0
  7  4  1  0
  8 11  1  0
  9 24  1  0
 10  3  1  0
 11  9  1  0
 12 16  2  0
 13  6  1  0
 14  5  1  0
 15 10  2  0
 16  1  1  0
  6 17  1  0
 18  5  1  0
 19 18  1  0
 20 17  1  0
 21 13  1  0
 22 14  1  0
 23  8  1  0
 24 25  1  0
 19 25  1  0
 20 26  1  0
 27  7  2  0
 28  8  2  0
 29  9  2  0
 30  9  1  0
 31  8  1  0
 13 32  1  1
 14 33  1  6
 21 34  1  1
 22 35  1  6
  4 12  1  0
 19 22  1  0
  7  2  1  0
 21 20  1  0
 26 23  1  0
 20 36  1  1
 19 37  1  6
  6 38  1  1
M  END

> <chembl_id>
CHEMBL2369151

> <chembl_pref_name>
None

