
     RDKit          2D

 72 77  0  0  0  0  0  0  0  0999 V2000
    1.7167   -4.5167    0.0000 N   0  0  0  0  0  0  0  0  0  0  0  0
    8.2625    0.3208    0.0000 N   0  0  0  0  0  0  0  0  0  0  0  0
    2.3000   -4.3667    0.0000 C   0  0  0  0  0  0  0  0  0  0  0  0
    8.0125   -0.2167    0.0000 C   0  0  0  0  0  0  0  0  0  0  0  0
    1.5042   -5.0750    0.0000 C   0  0  0  0  0  0  0  0  0  0  0  0
    8.8500    0.4375    0.0000 C   0  0  0  0  0  0  0  0  0  0  0  0
    1.3917   -4.0167    0.0000 C   0  0  0  0  0  0  0  0  0  0  0  0
    7.8167    0.7250    0.0000 C   0  0  0  0  0  0  0  0  0  0  0  0
    7.4167   -0.1542    0.0000 N   0  0  0  0  0  0  0  0  0  0  0  0
    2.3375   -3.7750    0.0000 N   0  0  0  0  0  0  0  0  0  0  0  0
    7.2917    0.4250    0.0000 C   0  0  0  0  0  0  0  0  0  0  0  0
    1.7792   -3.5625    0.0000 C   0  0  0  0  0  0  0  0  0  0  0  0
    1.8250   -5.5792    0.0000 C   0  0  0  0  0  0  0  0  0  0  0  0
    9.3000    0.0333    0.0000 C   0  0  0  0  0  0  0  0  0  0  0  0
    9.1042    0.9833    0.0000 O   0  0  0  0  0  0  0  0  0  0  0  0
    0.9167   -5.2292    0.0000 O   0  0  0  0  0  0  0  0  0  0  0  0
   -0.0458   -7.0792    0.0000 P   0  0  0  0  0  0  0  0  0  0  0  0
   11.1125    1.6125    0.0000 P   0  0  0  0  0  0  0  0  0  0  0  0
   -0.9958   -6.6542    0.0000 P   0  0  0  0  0  0  0  0  0  0  0  0
   10.8542    2.6125    0.0000 P   0  0  0  0  0  0  0  0  0  0  0  0
   10.6917    2.0375    0.0000 O   0  0  0  0  0  0  0  0  0  0  0  0
   -0.3958   -6.6042    0.0000 O   0  0  0  0  0  0  0  0  0  0  0  0
    9.7000    0.9208    0.0000 C   0  0  0  0  0  0  0  0  0  0  0  0
    0.8875   -5.8292    0.0000 C   0  0  0  0  0  0  0  0  0  0  0  0
    9.8167    0.3333    0.0000 C   0  0  0  0  0  0  0  0  0  0  0  0
    1.4542   -6.0375    0.0000 C   0  0  0  0  0  0  0  0  0  0  0  0
    3.9875   -3.7375    0.0000 S   0  0  0  0  0  0  0  0  0  0  0  0
    7.1000   -1.7667    0.0000 S   0  0  0  0  0  0  0  0  0  0  0  0
    7.8167    1.3208    0.0000 N   0  0  0  0  0  0  0  0  0  0  0  0
    0.8042   -3.9167    0.0000 N   0  0  0  0  0  0  0  0  0  0  0  0
    1.5667   -3.0000    0.0000 C   0  0  0  0  0  0  0  0  0  0  0  0
    6.7792    0.7375    0.0000 C   0  0  0  0  0  0  0  0  0  0  0  0
    0.9667   -2.9042    0.0000 N   0  0  0  0  0  0  0  0  0  0  0  0
    6.7792    1.3250    0.0000 N   0  0  0  0  0  0  0  0  0  0  0  0
   10.1125    1.3583    0.0000 C   0  0  0  0  0  0  0  0  0  0  0  0
    0.3792   -6.1417    0.0000 C   0  0  0  0  0  0  0  0  0  0  0  0
    0.5792   -3.3542    0.0000 C   0  0  0  0  0  0  0  0  0  0  0  0
    7.3125    1.6250    0.0000 C   0  0  0  0  0  0  0  0  0  0  0  0
    7.4042   -1.2500    0.0000 C   0  0  0  0  0  0  0  0  0  0  0  0
    3.4250   -3.9417    0.0000 C   0  0  0  0  0  0  0  0  0  0  0  0
    0.4375   -6.7417    0.0000 O   0  0  0  0  0  0  0  0  0  0  0  0
   10.6875    1.1958    0.0000 O   0  0  0  0  0  0  0  0  0  0  0  0
    2.7667   -4.7417    0.0000 S   0  0  0  0  0  0  0  0  0  0  0  0
    8.3042   -0.7292    0.0000 S   0  0  0  0  0  0  0  0  0  0  0  0
   -0.5333   -7.4292    0.0000 O   0  0  0  0  0  0  0  0  0  0  0  0
   11.5417    2.0333    0.0000 O   0  0  0  0  0  0  0  0  0  0  0  0
   10.2667    2.7833    0.0000 O   0  0  0  0  0  0  0  0  0  0  0  0
   -1.0625   -6.0667    0.0000 O   0  0  0  0  0  0  0  0  0  0  0  0
    3.6417   -3.2417    0.0000 O   0  0  0  0  0  0  0  0  0  0  0  0
    4.2042   -4.2875    0.0000 O   0  0  0  0  0  0  0  0  0  0  0  0
    6.6667   -1.3292    0.0000 O   0  0  0  0  0  0  0  0  0  0  0  0
    7.6167   -2.0667    0.0000 O   0  0  0  0  0  0  0  0  0  0  0  0
    2.4167   -5.6125    0.0000 O   0  0  0  0  0  0  0  0  0  0  0  0
    9.2375   -0.5625    0.0000 O   0  0  0  0  0  0  0  0  0  0  0  0
    0.3042   -7.5750    0.0000 O   0  0  0  0  0  0  0  0  0  0  0  0
   11.5417    1.1875    0.0000 O   0  0  0  0  0  0  0  0  0  0  0  0
   -0.9375   -7.2542    0.0000 O   0  0  0  0  0  0  0  0  0  0  0  0
   11.0125    3.1833    0.0000 O   0  0  0  0  0  0  0  0  0  0  0  0
   11.4292    2.4583    0.0000 O   0  0  0  0  0  0  0  0  0  0  0  0
   -1.6083   -6.7250    0.0000 O   0  0  0  0  0  0  0  0  0  0  0  0
    1.9417   -2.5417    0.0000 N   0  0  0  0  0  0  0  0  0  0  0  0
    6.2542    0.4375    0.0000 N   0  0  0  0  0  0  0  0  0  0  0  0
    1.6125   -6.6125    0.0000 O   0  0  0  0  0  0  0  0  0  0  0  0
   10.3625    0.0875    0.0000 O   0  0  0  0  0  0  0  0  0  0  0  0
    3.3292   -4.5375    0.0000 C   0  0  0  0  0  0  0  0  0  0  0  0
    8.0042   -1.2500    0.0000 C   0  0  0  0  0  0  0  0  0  0  0  0
    4.5875   -3.6750    0.0000 C   0  0  0  0  0  0  0  0  0  0  0  0
    6.5125   -1.9167    0.0000 C   0  0  0  0  0  0  0  0  0  0  0  0
    6.2667   -2.4625    0.0000 C   0  0  0  0  0  0  0  0  0  0  0  0
    4.8292   -3.1292    0.0000 C   0  0  0  0  0  0  0  0  0  0  0  0
    5.4292   -3.0667    0.0000 C   0  0  0  0  0  0  0  0  0  0  0  0
    5.6667   -2.5250    0.0000 C   0  0  0  0  0  0  0  0  0  0  0  0
  2  4  1  0
  3  1  1  0
  4 44  1  0
  5  1  1  0
  6  2  1  0
  7  1  1  0
  8  2  1  0
  9  4  2  0
 10  3  2  0
 11  9  1  0
 12  7  2  0
 13  5  1  0
 14  6  1  0
 15  6  1  0
 16  5  1  0
 17 41  1  0
 18 42  1  0
 19 22  1  0
 20 21  1  0
 21 18  1  0
 22 17  1  0
 23 15  1  0
 24 16  1  0
 25 14  1  0
 26 13  1  0
 27 40  1  0
 28 68  1  0
 29  8  1  0
 30  7  1  0
 31 12  1  0
 32 11  1  0
 33 37  1  0
 34 32  2  0
 23 35  1  6
 24 36  1  1
 37 30  2  0
 38 29  2  0
 39 28  1  0
 40 65  1  0
 41 36  1  0
 42 35  1  0
 43  3  1  0
 44 66  1  0
 45 17  2  0
 46 18  2  0
 47 20  2  0
 48 19  2  0
 49 27  2  0
 50 27  2  0
 51 28  2  0
 52 28  2  0
 13 53  1  6
 14 54  1  6
 55 17  1  0
 56 18  1  0
 57 19  1  0
 58 20  1  0
 59 20  1  0
 60 19  1  0
 61 31  1  0
 62 32  1  0
 26 63  1  6
 25 64  1  6
 65 43  1  0
 66 39  1  0
 67 27  1  0
 68 69  1  0
 69 72  1  0
 70 67  1  0
 71 70  1  0
 72 71  1  0
 12 10  1  0
 26 24  1  0
 33 31  2  0
  8 11  2  0
 38 34  1  0
 25 23  1  0
M  END

> <chembl_id>
CHEMBL610861

> <chembl_pref_name>
None

