
     RDKit          2D

 32 35  0  0  0  0  0  0  0  0999 V2000
    5.5229  -25.0727    0.0000 O   0  0  0  0  0  0  0  0  0  0  0  0
   10.6075  -27.0189    0.0000 N   0  0  0  0  0  0  0  0  0  0  0  0
    9.0318  -26.3478    0.0000 C   0  0  0  0  0  0  0  0  0  0  0  0
   11.1659  -25.6525    0.0000 N   0  0  0  0  0  0  0  0  0  0  0  0
   10.5102  -26.1349    0.0000 C   0  0  0  0  0  0  0  0  0  0  0  0
    4.7703  -23.8511    0.0000 O   0  0  0  0  0  0  0  0  0  0  0  0
    9.7687  -25.8074    0.0000 C   0  0  0  0  0  0  0  0  0  0  0  0
    9.5445  -25.0911    0.0000 N   0  0  0  0  0  0  0  0  0  0  0  0
    6.9713  -25.6563    0.0000 O   0  0  0  0  0  0  0  0  0  0  0  0
    3.9671  -24.6745    0.0000 O   0  0  0  0  0  0  0  0  0  0  0  0
    8.6870  -25.0869    0.0000 C   0  0  0  0  0  0  0  0  0  0  0  0
    4.5743  -25.4727    0.0000 O   0  0  0  0  0  0  0  0  0  0  0  0
    8.4076  -25.9088    0.0000 N   0  0  0  0  0  0  0  0  0  0  0  0
    5.5475  -25.8820    0.0000 C   0  0  0  0  0  0  0  0  0  0  0  0
    7.6419  -26.1586    0.0000 C   0  0  0  0  0  0  0  0  0  0  0  0
    6.5674  -26.8985    0.0000 C   0  0  0  0  0  0  0  0  0  0  0  0
    6.3165  -26.1233    0.0000 C   0  0  0  0  0  0  0  0  0  0  0  0
    4.7953  -24.6787    0.0000 P   0  0  0  0  0  0  0  0  0  0  0  0
    7.3852  -26.8985    0.0000 C   0  0  0  0  0  0  0  0  0  0  0  0
    9.1134  -27.1848    0.0000 N   0  0  0  0  0  0  0  0  0  0  0  0
    9.8968  -27.5391    0.0000 C   0  0  0  0  0  0  0  0  0  0  0  0
    6.0811  -27.5669    0.0000 O   0  0  0  0  0  0  0  0  0  0  0  0
    7.8392  -27.5366    0.0000 O   0  0  0  0  0  0  0  0  0  0  0  0
    4.0421  -23.4597    0.0000 P   0  0  0  0  0  0  0  0  0  0  0  0
    4.0171  -22.6334    0.0000 O   0  0  0  0  0  0  0  0  0  0  0  0
    3.2147  -23.4587    0.0000 O   0  0  0  0  0  0  0  0  0  0  0  0
    3.6238  -24.1727    0.0000 O   0  0  0  0  0  0  0  0  0  0  0  0
    4.6850  -22.1461    0.0000 C   0  0  0  0  0  0  0  0  0  0  0  0
    5.4698  -22.4003    0.0000 C   0  0  0  0  0  0  0  0  0  0  0  0
    5.9551  -21.7300    0.0000 C   0  0  0  0  0  0  0  0  0  0  0  0
    5.4661  -21.0621    0.0000 C   0  0  0  0  0  0  0  0  0  0  0  0
    4.6803  -21.3219    0.0000 C   0  0  0  0  0  0  0  0  0  0  0  0
  7  5  1  0
 20 21  2  0
 17 14  1  1
 18 12  1  0
 13 11  1  0
 15  9  1  0
 14  1  1  0
 21  2  1  0
 19 15  1  0
  3  7  2  0
  3 20  1  0
 11  8  2  0
  7  8  1  0
 18  6  1  0
  5  4  1  0
 16 17  1  0
 13  3  1  0
 19 16  1  0
  1 18  1  0
 15 13  1  1
 18 10  2  0
  5  2  2  0
  9 17  1  0
 16 22  1  6
 19 23  1  6
  6 24  1  0
 24 25  1  0
 24 26  1  0
 24 27  2  0
 25 28  1  0
 29 30  1  0
 28 29  1  0
 30 31  1  0
 31 32  1  0
 32 28  1  0
M  END

> <chembl_id>
CHEMBL3110202

> <chembl_pref_name>
None

