REMARK  Name = 121310010
REMARK                            x       y       z     vdW  Elec       q    Type
REMARK                         _______ _______ _______ _____ _____    ______ ____
ROOT
ATOM      1  C   LIG    1        5.571  -0.130   0.000  0.00  0.00    +0.178 C 
ATOM      2  C   LIG    1        6.523  -0.437   0.000  0.00  0.00    +0.178 C 
ATOM      3  C   LIG    1        7.109   0.373   0.000  0.00  0.00    +0.198 C 
ATOM      4  C   LIG    1        6.520   1.181   0.000  0.00  0.00    +0.225 C 
ATOM      5  O   LIG    1        5.569   0.870   0.000  0.00  0.00    -0.343 OA
ENDROOT
BRANCH   4   6
ATOM      6  C   LIG    1        6.209   2.131   0.000  0.00  0.00    +0.092 A 
ATOM      7  C   LIG    1        6.793   2.936   0.000  0.00  0.00    +0.029 A 
ATOM      8  C   LIG    1        6.209   3.741   0.000  0.00  0.00    +0.033 A 
ATOM      9  C   LIG    1        5.263   3.436   0.000  0.00  0.00    +0.105 A 
ATOM     10  C   LIG    1        4.397   3.936   0.000  0.00  0.00    +0.144 A 
ATOM     11  N   LIG    1        3.531   3.436   0.000  0.00  0.00    -0.217 NA
ATOM     12  C   LIG    1        3.531   2.436   0.000  0.00  0.00    +0.245 A 
ATOM     13  N   LIG    1        4.397   1.936   0.000  0.00  0.00    -0.154 NA
ATOM     14  N   LIG    1        5.263   2.436   0.000  0.00  0.00    -0.228 N 
BRANCH  10  15
ATOM     15  N   LIG    1        4.397   4.936   0.000  0.00  0.00    -0.341 N 
ATOM     16  H   LIG    1        4.934   5.246   0.000  0.00  0.00    +0.144 HD
ATOM     17  H   LIG    1        3.860   5.246   0.000  0.00  0.00    +0.144 HD
ENDBRANCH  10  15
ENDBRANCH   4   6
BRANCH   4  18
ATOM     18  C   LIG    1        7.328   1.770   0.000  0.00  0.00    +0.107 C 
ATOM     19  N   LIG    1        8.136   2.359   0.000  0.00  0.00    -0.193 NA
ENDBRANCH   4  18
BRANCH   3  20
ATOM     20  O   LIG    1        8.109   0.374   0.000  0.00  0.00    -0.385 OA
ATOM     21  H   LIG    1        8.420  -0.162   0.000  0.00  0.00    +0.210 HD
ENDBRANCH   3  20
BRANCH   2  22
ATOM     22  O   LIG    1        6.833  -1.388   0.000  0.00  0.00    -0.386 OA
ATOM     23  H   LIG    1        7.440  -1.516   0.000  0.00  0.00    +0.210 HD
ENDBRANCH   2  22
BRANCH   1  24
ATOM     24  C   LIG    1        4.763  -0.719   0.000  0.00  0.00    +0.206 C 
BRANCH  24  25
ATOM     25  O   LIG    1        4.869  -1.714   0.000  0.00  0.00    -0.284 OA
BRANCH  25  26
ATOM     26  P   LIG    1        4.061  -2.303   0.000  0.00  0.00    +0.483 P 
ATOM     27  O   LIG    1        3.472  -1.495   0.000  0.00  0.00    -0.227 OA
BRANCH  26  28
ATOM     28  O   LIG    1        4.651  -3.111   0.000  0.00  0.00    -0.302 OA
ATOM     29  H   LIG    1        5.267  -3.045   0.000  0.00  0.00    +0.222 HD
ENDBRANCH  26  28
BRANCH  26  30
ATOM     30  O   LIG    1        3.253  -2.892   0.000  0.00  0.00    -0.186 OA
BRANCH  30  31
ATOM     31  P   LIG    1        3.360  -3.886   0.000  0.00  0.00    +0.481 P 
ATOM     32  O   LIG    1        4.354  -3.780   0.000  0.00  0.00    -0.227 OA
BRANCH  31  33
ATOM     33  O   LIG    1        2.365  -3.993   0.000  0.00  0.00    -0.302 OA
ATOM     34  H   LIG    1        2.000  -3.492   0.000  0.00  0.00    +0.222 HD
ENDBRANCH  31  33
BRANCH  31  35
ATOM     35  O   LIG    1        3.466  -4.881   0.000  0.00  0.00    -0.302 OA
ATOM     36  H   LIG    1        2.965  -5.246   0.000  0.00  0.00    +0.222 HD
ENDBRANCH  31  35
ENDBRANCH  30  31
ENDBRANCH  26  30
ENDBRANCH  25  26
ENDBRANCH  24  25
ENDBRANCH   1  24
TORSDOF 13
