REMARK  Name = 134443515
REMARK                            x       y       z     vdW  Elec       q    Type
REMARK                         _______ _______ _______ _____ _____    ______ ____
ROOT
ATOM      1  C   LIG    1        4.424  -0.922   0.000  0.00  0.00    +0.154 C 
ATOM      2  C   LIG    1        5.376  -1.229   0.000  0.00  0.00    +0.069 C 
ATOM      3  C   LIG    1        5.962  -0.419   0.000  0.00  0.00    +0.169 C 
ATOM      4  C   LIG    1        5.373   0.389   0.000  0.00  0.00    +0.223 C 
ATOM      5  O   LIG    1        4.422   0.078   0.000  0.00  0.00    -0.346 OA
ENDROOT
BRANCH   4   6
ATOM      6  C   LIG    1        5.062   1.339   0.000  0.00  0.00    +0.092 A 
ATOM      7  C   LIG    1        5.646   2.144   0.000  0.00  0.00    +0.029 A 
ATOM      8  C   LIG    1        5.062   2.949   0.000  0.00  0.00    +0.033 A 
ATOM      9  C   LIG    1        4.116   2.644   0.000  0.00  0.00    +0.105 A 
ATOM     10  C   LIG    1        3.250   3.144   0.000  0.00  0.00    +0.144 A 
ATOM     11  N   LIG    1        2.384   2.644   0.000  0.00  0.00    -0.217 NA
ATOM     12  C   LIG    1        2.384   1.644   0.000  0.00  0.00    +0.245 A 
ATOM     13  N   LIG    1        3.250   1.144   0.000  0.00  0.00    -0.154 NA
ATOM     14  N   LIG    1        4.116   1.644   0.000  0.00  0.00    -0.228 N 
BRANCH  10  15
ATOM     15  N   LIG    1        3.250   4.144   0.000  0.00  0.00    -0.341 N 
ATOM     16  H   LIG    1        3.787   4.454   0.000  0.00  0.00    +0.144 HD
ATOM     17  H   LIG    1        2.713   4.454   0.000  0.00  0.00    +0.144 HD
ENDBRANCH  10  15
ENDBRANCH   4   6
BRANCH   4  18
ATOM     18  C   LIG    1        6.181   0.978   0.000  0.00  0.00    +0.107 C 
ATOM     19  N   LIG    1        6.989   1.567   0.000  0.00  0.00    -0.193 NA
ENDBRANCH   4  18
BRANCH   3  20
ATOM     20  O   LIG    1        6.962  -0.417   0.000  0.00  0.00    -0.387 OA
ATOM     21  H   LIG    1        7.273  -0.954   0.000  0.00  0.00    +0.210 HD
ENDBRANCH   3  20
BRANCH   1  22
ATOM     22  C   LIG    1        3.616  -1.511   0.000  0.00  0.00    +0.255 C 
BRANCH  22  23
ATOM     23  O   LIG    1        3.722  -2.505   0.000  0.00  0.00    -0.129 OA
BRANCH  23  24
ATOM     24  P   LIG    1        2.914  -3.095   0.000  0.00  0.00    +0.752 P 
ATOM     25  O   LIG    1        2.000  -2.689   0.000  0.00  0.00    -0.009 OA
BRANCH  24  26
ATOM     26  O   LIG    1        3.021  -4.089   0.000  0.00  0.00    -0.146 OA
ATOM     27  H   LIG    1        2.519  -4.454   0.000  0.00  0.00    +0.276 HD
ENDBRANCH  24  26
ENDBRANCH  23  24
ENDBRANCH  22  23
ENDBRANCH   1  22
TORSDOF 8
