REMARK  Name = 121310009
REMARK                            x       y       z     vdW  Elec       q    Type
REMARK                         _______ _______ _______ _____ _____    ______ ____
ROOT
ATOM      1  C   LIG    1        4.318  -0.914   0.000  0.00  0.00    +0.178 C 
ATOM      2  C   LIG    1        5.269  -1.222   0.000  0.00  0.00    +0.178 C 
ATOM      3  C   LIG    1        5.856  -0.411   0.000  0.00  0.00    +0.198 C 
ATOM      4  C   LIG    1        5.266   0.397   0.000  0.00  0.00    +0.225 C 
ATOM      5  O   LIG    1        4.316   0.086   0.000  0.00  0.00    -0.343 OA
ENDROOT
BRANCH   4   6
ATOM      6  C   LIG    1        4.956   1.347   0.000  0.00  0.00    +0.092 A 
ATOM      7  C   LIG    1        5.540   2.152   0.000  0.00  0.00    +0.029 A 
ATOM      8  C   LIG    1        4.956   2.957   0.000  0.00  0.00    +0.033 A 
ATOM      9  C   LIG    1        4.010   2.652   0.000  0.00  0.00    +0.105 A 
ATOM     10  C   LIG    1        3.144   3.152   0.000  0.00  0.00    +0.144 A 
ATOM     11  N   LIG    1        2.278   2.652   0.000  0.00  0.00    -0.217 NA
ATOM     12  C   LIG    1        2.278   1.652   0.000  0.00  0.00    +0.245 A 
ATOM     13  N   LIG    1        3.144   1.152   0.000  0.00  0.00    -0.154 NA
ATOM     14  N   LIG    1        4.010   1.652   0.000  0.00  0.00    -0.228 N 
BRANCH  10  15
ATOM     15  N   LIG    1        3.144   4.152   0.000  0.00  0.00    -0.341 N 
ATOM     16  H   LIG    1        3.681   4.462   0.000  0.00  0.00    +0.144 HD
ATOM     17  H   LIG    1        2.607   4.462   0.000  0.00  0.00    +0.144 HD
ENDBRANCH  10  15
ENDBRANCH   4   6
BRANCH   4  18
ATOM     18  C   LIG    1        6.074   0.986   0.000  0.00  0.00    +0.107 C 
ATOM     19  N   LIG    1        6.883   1.575   0.000  0.00  0.00    -0.193 NA
ENDBRANCH   4  18
BRANCH   3  20
ATOM     20  O   LIG    1        6.856  -0.410   0.000  0.00  0.00    -0.385 OA
ATOM     21  H   LIG    1        7.167  -0.946   0.000  0.00  0.00    +0.210 HD
ENDBRANCH   3  20
BRANCH   2  22
ATOM     22  O   LIG    1        5.580  -2.172   0.000  0.00  0.00    -0.386 OA
ATOM     23  H   LIG    1        6.187  -2.300   0.000  0.00  0.00    +0.210 HD
ENDBRANCH   2  22
BRANCH   1  24
ATOM     24  C   LIG    1        3.510  -1.503   0.000  0.00  0.00    +0.206 C 
BRANCH  24  25
ATOM     25  O   LIG    1        3.616  -2.498   0.000  0.00  0.00    -0.284 OA
BRANCH  25  26
ATOM     26  P   LIG    1        2.808  -3.087   0.000  0.00  0.00    +0.472 P 
ATOM     27  O   LIG    1        2.219  -2.279   0.000  0.00  0.00    -0.228 OA
BRANCH  26  28
ATOM     28  O   LIG    1        3.397  -3.895   0.000  0.00  0.00    -0.303 OA
ATOM     29  H   LIG    1        3.146  -4.462   0.000  0.00  0.00    +0.222 HD
ENDBRANCH  26  28
BRANCH  26  30
ATOM     30  O   LIG    1        2.000  -3.676   0.000  0.00  0.00    -0.303 OA
ATOM     31  H   LIG    1        2.066  -4.293   0.000  0.00  0.00    +0.222 HD
ENDBRANCH  26  30
ENDBRANCH  25  26
ENDBRANCH  24  25
ENDBRANCH   1  24
TORSDOF 10
