
     RDKit          3D

 30 34  0  0  0  0  0  0  0  0999 V2000
   -0.7649   -1.8513    1.9729 C   0  0  0  0  0  0  0  0  0  0  0  0
   -0.6947   -1.1404    0.7193 C   0  0  2  0  0  0  0  0  0  0  0  0
   -0.7997    0.2263    0.8653 C   0  0  0  0  0  0  0  0  0  0  0  0
   -2.2567    0.4343    1.1981 C   0  0  0  0  0  0  0  0  0  0  0  0
   -2.5490    0.2938   -0.3872 C   0  0  2  0  0  0  0  0  0  0  0  0
   -4.1250    0.9222   -0.4294 C   0  0  2  0  0  0  0  0  0  0  0  0
   -4.1612    1.5652    1.0781 C   0  0  0  0  0  0  0  0  0  0  0  0
   -5.4497    2.2484    1.2101 C   0  0  0  0  0  0  0  0  0  0  0  0
   -6.5532    1.5491    0.4833 C   0  0  0  0  0  0  0  0  0  0  0  0
   -7.7112    1.9175    0.8344 O   0  0  0  0  0  0  0  0  0  0  0  0
   -6.2450    0.1797    0.0396 C   0  0  0  0  0  0  0  0  0  0  0  0
   -4.9992   -0.3229    0.0340 C   0  0  0  0  0  0  0  0  0  0  0  0
   -4.6320   -1.2517    1.0696 C   0  0  0  0  0  0  0  0  0  0  0  0
   -3.2172   -1.6625    1.0783 C   0  0  0  0  0  0  0  0  0  0  0  0
   -2.9563   -1.3272   -0.4779 C   0  0  2  0  0  0  0  0  0  0  0  0
   -1.4087   -1.9850   -0.4297 C   0  0  1  0  0  0  0  0  0  0  0  0
   -0.7662   -0.9706   -1.5328 C   0  0  0  0  0  0  0  0  0  0  0  0
    0.5087   -1.7080   -1.3530 C   0  0  0  0  0  0  0  0  0  0  0  0
    0.8089   -1.6235    0.2613 C   0  0  1  0  0  0  0  0  0  0  0  0
    1.3867   -0.1973    0.0829 O   0  0  0  0  0  0  0  0  0  0  0  0
    2.5823   -0.3529   -0.6298 C   0  0  0  0  0  0  0  0  0  0  0  0
    2.7331   -1.3181   -1.4430 O   0  0  0  0  0  0  0  0  0  0  0  0
    3.8088    0.4172   -0.3688 C   0  0  0  0  0  0  0  0  0  0  0  0
    4.8390   -0.5965    0.1214 C   0  0  0  0  0  0  0  0  0  0  0  0
    6.1400    0.1436    0.1208 C   0  0  0  0  0  0  0  0  0  0  0  0
    6.3607    1.1582    1.0377 C   0  0  0  0  0  0  0  0  0  0  0  0
    7.3443    2.0985    0.8230 C   0  0  0  0  0  0  0  0  0  0  0  0
    8.1298    1.9529   -0.2992 C   0  0  0  0  0  0  0  0  0  0  0  0
    7.9555    0.8869   -1.1729 C   0  0  0  0  0  0  0  0  0  0  0  0
    6.6921    0.3144   -1.1423 C   0  0  0  0  0  0  0  0  0  0  0  0
  2  1  1  1
  2  3  1  0
  3  4  1  0
  5  4  1  1
  5  6  1  0
  6  7  1  1
  7  8  1  0
  8  9  1  0
  9 10  2  0
  9 11  1  0
 11 12  2  0
 12 13  1  0
 13 14  1  0
 15 14  1  1
 15 16  1  0
 16 17  1  6
 17 18  1  0
 18 19  1  0
 19 20  1  6
 20 21  1  0
 21 22  2  0
 21 23  1  0
 23 24  1  0
 24 25  1  0
 25 26  2  0
 26 27  1  0
 27 28  2  0
 28 29  1  0
 29 30  2  0
 16  2  1  0
 30 25  1  0
 19  2  1  0
 15  5  1  0
 12  6  1  0
M  END
>  <zinc_id>  (4) 
ZINC000253500017

>  <smiles>  (4) 
C[C@]12CC[C@@H]3[C@@H]4CCC(=O)C=C4CC[C@@H]3[C@H]1CC[C@H]2OC(=O)CCc1ccccc1

