
     RDKit          2D

 30 34  0  0  0  0  0  0  0  0999 V2000
   -0.4432   -0.8175    0.0000 C   0  0  0  0  0  0  0  0  0  0  0  0
    0.6503    0.2093    0.0000 C   0  0  0  0  0  0  0  0  0  0  0  0
    1.1435   -1.2072    0.0000 C   0  0  0  0  0  0  0  0  0  0  0  0
    2.6170   -1.4884    0.0000 C   0  0  0  0  0  0  0  0  0  0  0  0
    3.5971   -0.3529    0.0000 C   0  0  0  0  0  0  0  0  0  0  0  0
    5.0706   -0.6340    0.0000 C   0  0  0  0  0  0  0  0  0  0  0  0
    5.5638   -2.0506    0.0000 C   0  0  0  0  0  0  0  0  0  0  0  0
    7.0372   -2.3317    0.0000 C   0  0  0  0  0  0  0  0  0  0  0  0
    8.0174   -1.1963    0.0000 C   0  0  0  0  0  0  0  0  0  0  0  0
    9.4908   -1.4774    0.0000 O   0  0  0  0  0  0  0  0  0  0  0  0
    7.5241    0.2203    0.0000 C   0  0  0  0  0  0  0  0  0  0  0  0
    6.0507    0.5014    0.0000 C   0  0  0  0  0  0  0  0  0  0  0  0
    5.5575    1.9180    0.0000 C   0  0  0  0  0  0  0  0  0  0  0  0
    4.0840    2.1991    0.0000 C   0  0  0  0  0  0  0  0  0  0  0  0
    3.1039    1.0637    0.0000 C   0  0  0  0  0  0  0  0  0  0  0  0
    1.6305    1.3448    0.0000 C   0  0  0  0  0  0  0  0  0  0  0  0
    0.8535    2.6279    0.0000 C   0  0  0  0  0  0  0  0  0  0  0  0
   -0.6069    2.2854    0.0000 C   0  0  0  0  0  0  0  0  0  0  0  0
   -0.7325    0.7907    0.0000 C   0  0  0  0  0  0  0  0  0  0  0  0
   -2.0156    0.0137    0.0000 O   0  0  0  0  0  0  0  0  0  0  0  0
   -3.3300    0.7363    0.0000 C   0  0  0  0  0  0  0  0  0  0  0  0
   -3.3614    2.2360    0.0000 O   0  0  0  0  0  0  0  0  0  0  0  0
   -4.6131   -0.0407    0.0000 C   0  0  0  0  0  0  0  0  0  0  0  0
   -5.9275    0.6820    0.0000 C   0  0  0  0  0  0  0  0  0  0  0  0
   -7.2106   -0.0950    0.0000 C   0  0  0  0  0  0  0  0  0  0  0  0
   -8.5250    0.6277    0.0000 C   0  0  0  0  0  0  0  0  0  0  0  0
   -9.8081   -0.1493    0.0000 C   0  0  0  0  0  0  0  0  0  0  0  0
   -9.7767   -1.6490    0.0000 C   0  0  0  0  0  0  0  0  0  0  0  0
   -8.4623   -2.3717    0.0000 C   0  0  0  0  0  0  0  0  0  0  0  0
   -7.1792   -1.5947    0.0000 C   0  0  0  0  0  0  0  0  0  0  0  0
  2  1  1  1
  2  3  1  0
  3  4  1  0
  5  4  1  1
  5  6  1  0
  6  7  1  1
  7  8  1  0
  8  9  1  0
  9 10  2  0
  9 11  1  0
 11 12  2  0
 12 13  1  0
 13 14  1  0
 15 14  1  1
 15 16  1  0
 16 17  1  1
 17 18  1  0
 18 19  1  0
 19 20  1  1
 20 21  1  0
 21 22  2  0
 21 23  1  0
 23 24  1  0
 24 25  1  0
 25 26  2  0
 26 27  1  0
 27 28  2  0
 28 29  1  0
 29 30  2  0
 16  2  1  0
 30 25  1  0
 19  2  1  0
 15  5  1  0
 12  6  1  0
M  END
>  <zinc_id>  (3) 
ZINC000003831193

>  <smiles>  (3) 
C[C@]12CC[C@@H]3[C@@H]4CCC(=O)C=C4CC[C@@H]3[C@@H]1CC[C@@H]2OC(=O)CCc1ccccc1

