
     RDKit          3D

 30 34  0  0  0  0  0  0  0  0999 V2000
    0.3788   -1.5994    1.4109 C   0  0  0  0  0  0  0  0  0  0  0  0
   -0.6408   -0.9201    0.4833 C   0  0  2  0  0  0  0  0  0  0  0  0
   -1.2174    0.0971    1.2010 C   0  0  0  0  0  0  0  0  0  0  0  0
   -2.7334    0.1271    1.0470 C   0  0  0  0  0  0  0  0  0  0  0  0
   -2.6086   -0.0600   -0.5487 C   0  0  2  0  0  0  0  0  0  0  0  0
   -4.2273    0.2089   -0.9994 C   0  0  2  0  0  0  0  0  0  0  0  0
   -4.0732    1.8140   -0.7490 C   0  0  0  0  0  0  0  0  0  0  0  0
   -5.4963    2.3493   -0.5841 C   0  0  0  0  0  0  0  0  0  0  0  0
   -5.6852    2.1642    0.9018 C   0  0  0  0  0  0  0  0  0  0  0  0
   -5.1166    3.1072    1.5417 O   0  0  0  0  0  0  0  0  0  0  0  0
   -5.3405    0.7649    1.2155 C   0  0  0  0  0  0  0  0  0  0  0  0
   -4.9418   -0.1094    0.3845 C   0  0  0  0  0  0  0  0  0  0  0  0
   -5.0731   -1.5883    0.4902 C   0  0  0  0  0  0  0  0  0  0  0  0
   -3.6689   -2.0086    0.6768 C   0  0  0  0  0  0  0  0  0  0  0  0
   -2.8267   -1.7160   -0.6697 C   0  0  2  0  0  0  0  0  0  0  0  0
   -1.4273   -2.2594    0.1129 C   0  0  1  0  0  0  0  0  0  0  0  0
   -0.7231   -2.5257   -1.3408 C   0  0  0  0  0  0  0  0  0  0  0  0
    0.6648   -2.1303   -0.9902 C   0  0  0  0  0  0  0  0  0  0  0  0
    0.1550   -0.5625   -0.8800 C   0  0  2  0  0  0  0  0  0  0  0  0
    1.4202   -0.0771   -0.1337 O   0  0  0  0  0  0  0  0  0  0  0  0
    2.6244   -0.5661   -0.5529 C   0  0  0  0  0  0  0  0  0  0  0  0
    2.6682   -1.8155   -0.6553 O   0  0  0  0  0  0  0  0  0  0  0  0
    3.8046    0.2163   -0.9676 C   0  0  0  0  0  0  0  0  0  0  0  0
    3.9905    1.3053    0.0519 C   0  0  0  0  0  0  0  0  0  0  0  0
    5.2930    1.1077    0.7441 C   0  0  0  0  0  0  0  0  0  0  0  0
    6.1646    2.1861    0.6861 C   0  0  0  0  0  0  0  0  0  0  0  0
    7.5227    2.0658    0.7752 C   0  0  0  0  0  0  0  0  0  0  0  0
    8.0497    0.7798    0.7620 C   0  0  0  0  0  0  0  0  0  0  0  0
    7.2147   -0.2315    1.2214 C   0  0  0  0  0  0  0  0  0  0  0  0
    5.8492   -0.1237    0.9868 C   0  0  0  0  0  0  0  0  0  0  0  0
  2  1  1  1
  2  3  1  0
  3  4  1  0
  5  4  1  1
  5  6  1  0
  6  7  1  1
  7  8  1  0
  8  9  1  0
  9 10  2  0
  9 11  1  0
 11 12  2  0
 12 13  1  0
 13 14  1  0
 15 14  1  1
 15 16  1  0
 16 17  1  6
 17 18  1  0
 18 19  1  0
 19 20  1  1
 20 21  1  0
 21 22  2  0
 21 23  1  0
 23 24  1  0
 24 25  1  0
 25 26  2  0
 26 27  1  0
 27 28  2  0
 28 29  1  0
 29 30  2  0
 16  2  1  0
 30 25  1  0
 19  2  1  0
 15  5  1  0
 12  6  1  0
M  END
>  <zinc_id>  (2) 
ZINC000000625044

>  <smiles>  (2) 
C[C@]12CC[C@@H]3[C@@H]4CCC(=O)C=C4CC[C@@H]3[C@H]1CC[C@@H]2OC(=O)CCc1ccccc1

