121310010
  -OEChem-08232014072D

 44 46  0     1  0  0  0  0  0999 V2000
    4.0614   -2.3027    0.0000 P   0  0  3  0  0  0  0  0  0  0  0  0
    3.3596   -3.8863    0.0000 P   0  0  0  0  0  0  0  0  0  0  0  0
    5.5694    0.8700    0.0000 O   0  0  0  0  0  0  0  0  0  0  0  0
    8.1091    0.3744    0.0000 O   0  0  0  0  0  0  0  0  0  0  0  0
    6.8334   -1.3879    0.0000 O   0  0  0  0  0  0  0  0  0  0  0  0
    4.8694   -1.7136    0.0000 O   0  0  0  0  0  0  0  0  0  0  0  0
    3.2534   -2.8919    0.0000 O   0  0  0  0  0  0  0  0  0  0  0  0
    4.6506   -3.1107    0.0000 O   0  0  0  0  0  0  0  0  0  0  0  0
    3.4722   -1.4947    0.0000 O   0  0  0  0  0  0  0  0  0  0  0  0
    3.4659   -4.8806    0.0000 O   0  0  0  0  0  0  0  0  0  0  0  0
    2.3653   -3.9925    0.0000 O   0  0  0  0  0  0  0  0  0  0  0  0
    4.3540   -3.7800    0.0000 O   0  0  0  0  0  0  0  0  0  0  0  0
    5.2630    2.4359    0.0000 N   0  0  0  0  0  0  0  0  0  0  0  0
    4.3970    1.9359    0.0000 N   0  0  0  0  0  0  0  0  0  0  0  0
    8.1359    2.3590    0.0000 N   0  0  0  0  0  0  0  0  0  0  0  0
    3.5310    3.4359    0.0000 N   0  0  0  0  0  0  0  0  0  0  0  0
    4.3970    4.9359    0.0000 N   0  0  0  0  0  0  0  0  0  0  0  0
    6.5199    1.1806    0.0000 C   0  0  2  0  0  0  0  0  0  0  0  0
    7.1091    0.3726    0.0000 C   0  0  1  0  0  0  0  0  0  0  0  0
    6.5227   -0.4374    0.0000 C   0  0  1  0  0  0  0  0  0  0  0  0
    5.5711   -0.1300    0.0000 C   0  0  1  0  0  0  0  0  0  0  0  0
    6.2093    2.1312    0.0000 C   0  0  0  0  0  0  0  0  0  0  0  0
    4.7631   -0.7192    0.0000 C   0  0  0  0  0  0  0  0  0  0  0  0
    7.3279    1.7698    0.0000 C   0  0  0  0  0  0  0  0  0  0  0  0
    6.7929    2.9359    0.0000 C   0  0  0  0  0  0  0  0  0  0  0  0
    5.2630    3.4359    0.0000 C   0  0  0  0  0  0  0  0  0  0  0  0
    6.2093    3.7406    0.0000 C   0  0  0  0  0  0  0  0  0  0  0  0
    4.3970    3.9359    0.0000 C   0  0  0  0  0  0  0  0  0  0  0  0
    3.5310    2.4359    0.0000 C   0  0  0  0  0  0  0  0  0  0  0  0
    7.3896    0.9255    0.0000 H   0  0  0  0  0  0  0  0  0  0  0  0
    6.0851   -0.8766    0.0000 H   0  0  0  0  0  0  0  0  0  0  0  0
    5.0182    0.1505    0.0000 H   0  0  0  0  0  0  0  0  0  0  0  0
    4.4904   -0.1624    0.0000 H   0  0  0  0  0  0  0  0  0  0  0  0
    4.1674   -0.8911    0.0000 H   0  0  0  0  0  0  0  0  0  0  0  0
    7.4129    2.9359    0.0000 H   0  0  0  0  0  0  0  0  0  0  0  0
    8.4200   -0.1620    0.0000 H   0  0  0  0  0  0  0  0  0  0  0  0
    7.4401   -1.5158    0.0000 H   0  0  0  0  0  0  0  0  0  0  0  0
    6.4019    4.3299    0.0000 H   0  0  0  0  0  0  0  0  0  0  0  0
    2.9940    2.1259    0.0000 H   0  0  0  0  0  0  0  0  0  0  0  0
    3.8601    5.2459    0.0000 H   0  0  0  0  0  0  0  0  0  0  0  0
    4.9340    5.2459    0.0000 H   0  0  0  0  0  0  0  0  0  0  0  0
    5.2671   -3.0449    0.0000 H   0  0  0  0  0  0  0  0  0  0  0  0
    2.9649   -5.2459    0.0000 H   0  0  0  0  0  0  0  0  0  0  0  0
    2.0000   -3.4916    0.0000 H   0  0  0  0  0  0  0  0  0  0  0  0
  1  6  1  0  0  0  0
  1  7  1  0  0  0  0
  1  8  1  0  0  0  0
  1  9  2  0  0  0  0
  2  7  1  0  0  0  0
  2 10  1  0  0  0  0
  2 11  1  0  0  0  0
  2 12  2  0  0  0  0
  3 18  1  0  0  0  0
  3 21  1  0  0  0  0
 19  4  1  6  0  0  0
  4 36  1  0  0  0  0
 20  5  1  6  0  0  0
  5 37  1  0  0  0  0
  6 23  1  0  0  0  0
  8 42  1  0  0  0  0
 10 43  1  0  0  0  0
 11 44  1  0  0  0  0
 13 14  1  0  0  0  0
 13 22  1  0  0  0  0
 13 26  1  0  0  0  0
 14 29  2  0  0  0  0
 15 24  3  0  0  0  0
 16 28  2  0  0  0  0
 16 29  1  0  0  0  0
 17 28  1  0  0  0  0
 17 40  1  0  0  0  0
 17 41  1  0  0  0  0
 18 19  1  0  0  0  0
 18 22  1  0  0  0  0
 18 24  1  6  0  0  0
 19 20  1  0  0  0  0
 19 30  1  0  0  0  0
 20 21  1  0  0  0  0
 20 31  1  0  0  0  0
 21 23  1  1  0  0  0
 21 32  1  0  0  0  0
 22 25  2  0  0  0  0
 23 33  1  0  0  0  0
 23 34  1  0  0  0  0
 25 27  1  0  0  0  0
 25 35  1  0  0  0  0
 26 27  2  0  0  0  0
 26 28  1  0  0  0  0
 27 38  1  0  0  0  0
 29 39  1  0  0  0  0
M  END
> <PUBCHEM_COMPOUND_CID>
121310010

> <PUBCHEM_COMPOUND_CANONICALIZED>
1

> <PUBCHEM_CACTVS_COMPLEXITY>
773

> <PUBCHEM_CACTVS_HBOND_ACCEPTOR>
14

> <PUBCHEM_CACTVS_HBOND_DONOR>
6

> <PUBCHEM_CACTVS_ROTATABLE_BOND>
6

> <PUBCHEM_CACTVS_SUBSKEYS>
AAADccBzvAMAAAAAAAAAAAAAAAAAAWJAAAAsAAAAAAAAAFgB4AAAHgAYCCAADFyhlgY18LZIFxCyRSZjZISShC8xkqAd2CA4fJiL/uLAuJmX8AhnyAPb6C/w8PcOAAAAAAAAAAAAAAAAAAAAAAAAAAAAAA==

> <PUBCHEM_IUPAC_OPENEYE_NAME>
[(2R,3S,4R,5R)-5-(4-aminopyrrolo[2,1-f][1,2,4]triazin-7-yl)-5-cyano-3,4-dihydroxy-tetrahydrofuran-2-yl]methyl phosphono hydrogen phosphate

> <PUBCHEM_IUPAC_CAS_NAME>
[(2R,3S,4R,5R)-5-(4-amino-7-pyrrolo[2,1-f][1,2,4]triazinyl)-5-cyano-3,4-dihydroxy-2-oxolanyl]methyl phosphono hydrogen phosphate

> <PUBCHEM_IUPAC_NAME_MARKUP>
[(2<I>R</I>,3<I>S</I>,4<I>R</I>,5<I>R</I>)-5-(4-aminopyrrolo[2,1-f][1,2,4]triazin-7-yl)-5-cyano-3,4-dihydroxyoxolan-2-yl]methyl phosphono hydrogen phosphate

> <PUBCHEM_IUPAC_NAME>
[(2R,3S,4R,5R)-5-(4-aminopyrrolo[2,1-f][1,2,4]triazin-7-yl)-5-cyano-3,4-dihydroxyoxolan-2-yl]methyl phosphono hydrogen phosphate

> <PUBCHEM_IUPAC_SYSTEMATIC_NAME>
[(2R,3S,4R,5R)-5-(4-azanylpyrrolo[2,1-f][1,2,4]triazin-7-yl)-5-cyano-3,4-bis(oxidanyl)oxolan-2-yl]methyl phosphono hydrogen phosphate

> <PUBCHEM_IUPAC_TRADITIONAL_NAME>
[(2R,3S,4R,5R)-5-(4-aminopyrrolo[2,1-f][1,2,4]triazin-7-yl)-5-cyano-3,4-dihydroxy-tetrahydrofuran-2-yl]methyl phosphono hydrogen phosphate

> <PUBCHEM_IUPAC_INCHI>
InChI=1S/C12H15N5O10P2/c13-4-12(8-2-1-6-11(14)15-5-16-17(6)8)10(19)9(18)7(26-12)3-25-29(23,24)27-28(20,21)22/h1-2,5,7,9-10,18-19H,3H2,(H,23,24)(H2,14,15,16)(H2,20,21,22)/t7-,9-,10-,12+/m1/s1

> <PUBCHEM_IUPAC_INCHIKEY>
FTBPQCZJBIZRNA-LTGWCKQJSA-N

> <PUBCHEM_XLOGP3_AA>
-4.2

> <PUBCHEM_EXACT_MASS>
451.029416

> <PUBCHEM_MOLECULAR_FORMULA>
C12H15N5O10P2

> <PUBCHEM_MOLECULAR_WEIGHT>
451.22

> <PUBCHEM_OPENEYE_CAN_SMILES>
C1=C2C(=NC=NN2C(=C1)C3(C(C(C(O3)COP(=O)(O)OP(=O)(O)O)O)O)C#N)N

> <PUBCHEM_OPENEYE_ISO_SMILES>
C1=C2C(=NC=NN2C(=C1)[C@]3([C@@H]([C@@H]([C@H](O3)COP(=O)(O)OP(=O)(O)O)O)O)C#N)N

> <PUBCHEM_CACTVS_TPSA>
243

> <PUBCHEM_MONOISOTOPIC_WEIGHT>
451.029416

> <PUBCHEM_TOTAL_CHARGE>
0

> <PUBCHEM_HEAVY_ATOM_COUNT>
29

> <PUBCHEM_ATOM_DEF_STEREO_COUNT>
4

> <PUBCHEM_ATOM_UDEF_STEREO_COUNT>
0

> <PUBCHEM_BOND_DEF_STEREO_COUNT>
0

> <PUBCHEM_BOND_UDEF_STEREO_COUNT>
0

> <PUBCHEM_ISOTOPIC_ATOM_COUNT>
0

> <PUBCHEM_COMPONENT_COUNT>
1

> <PUBCHEM_CACTVS_TAUTO_COUNT>
-1

> <PUBCHEM_COORDINATE_TYPE>
1
5
255

> <PUBCHEM_BONDANNOTATIONS>
13  14  8
13  22  8
13  26  8
14  29  8
16  28  8
16  29  8
18  24  6
21  23  5
22  25  8
25  27  8
26  27  8
26  28  8
19  4  6
20  5  6

