134443515
  -OEChem-08232014072D

 36 38  0     1  0  0  0  0  0999 V2000
    2.9142   -3.0945    0.0000 P   0  3  0  0  0  0  0  0  0  0  0  0
    4.4223    0.0782    0.0000 O   0  0  0  0  0  0  0  0  0  0  0  0
    6.9620   -0.4174    0.0000 O   0  0  0  0  0  0  0  0  0  0  0  0
    3.7222   -2.5053    0.0000 O   0  0  0  0  0  0  0  0  0  0  0  0
    3.0205   -4.0888    0.0000 O   0  0  0  0  0  0  0  0  0  0  0  0
    2.0000   -2.6893    0.0000 O   0  0  0  0  0  0  0  0  0  0  0  0
    4.1159    1.6441    0.0000 N   0  0  0  0  0  0  0  0  0  0  0  0
    3.2499    1.1441    0.0000 N   0  0  0  0  0  0  0  0  0  0  0  0
    6.9888    1.5672    0.0000 N   0  0  0  0  0  0  0  0  0  0  0  0
    2.3838    2.6441    0.0000 N   0  0  0  0  0  0  0  0  0  0  0  0
    3.2499    4.1441    0.0000 N   0  0  0  0  0  0  0  0  0  0  0  0
    5.3728    0.3889    0.0000 C   0  0  2  0  0  0  0  0  0  0  0  0
    5.9620   -0.4191    0.0000 C   0  0  1  0  0  0  0  0  0  0  0  0
    5.3756   -1.2292    0.0000 C   0  0  0  0  0  0  0  0  0  0  0  0
    4.4240   -0.9218    0.0000 C   0  0  1  0  0  0  0  0  0  0  0  0
    5.0621    1.3394    0.0000 C   0  0  0  0  0  0  0  0  0  0  0  0
    3.6160   -1.5110    0.0000 C   0  0  0  0  0  0  0  0  0  0  0  0
    5.6457    2.1441    0.0000 C   0  0  0  0  0  0  0  0  0  0  0  0
    6.1808    0.9781    0.0000 C   0  0  0  0  0  0  0  0  0  0  0  0
    4.1159    2.6441    0.0000 C   0  0  0  0  0  0  0  0  0  0  0  0
    5.0621    2.9489    0.0000 C   0  0  0  0  0  0  0  0  0  0  0  0
    3.2499    3.1441    0.0000 C   0  0  0  0  0  0  0  0  0  0  0  0
    2.3838    1.6441    0.0000 C   0  0  0  0  0  0  0  0  0  0  0  0
    6.2425    0.1338    0.0000 H   0  0  0  0  0  0  0  0  0  0  0  0
    5.1244   -1.7960    0.0000 H   0  0  0  0  0  0  0  0  0  0  0  0
    5.9131   -1.5382    0.0000 H   0  0  0  0  0  0  0  0  0  0  0  0
    3.8711   -0.6413    0.0000 H   0  0  0  0  0  0  0  0  0  0  0  0
    3.3432   -0.9542    0.0000 H   0  0  0  0  0  0  0  0  0  0  0  0
    3.0203   -1.6829    0.0000 H   0  0  0  0  0  0  0  0  0  0  0  0
    6.2657    2.1441    0.0000 H   0  0  0  0  0  0  0  0  0  0  0  0
    7.2729   -0.9538    0.0000 H   0  0  0  0  0  0  0  0  0  0  0  0
    5.2547    3.5382    0.0000 H   0  0  0  0  0  0  0  0  0  0  0  0
    1.8469    1.3341    0.0000 H   0  0  0  0  0  0  0  0  0  0  0  0
    2.7129    4.4541    0.0000 H   0  0  0  0  0  0  0  0  0  0  0  0
    3.7868    4.4541    0.0000 H   0  0  0  0  0  0  0  0  0  0  0  0
    2.5195   -4.4541    0.0000 H   0  0  0  0  0  0  0  0  0  0  0  0
  1  4  1  0  0  0  0
  1  5  1  0  0  0  0
  1  6  2  0  0  0  0
  2 12  1  0  0  0  0
  2 15  1  0  0  0  0
 13  3  1  6  0  0  0
  3 31  1  0  0  0  0
  4 17  1  0  0  0  0
  5 36  1  0  0  0  0
  7  8  1  0  0  0  0
  7 16  1  0  0  0  0
  7 20  1  0  0  0  0
  8 23  2  0  0  0  0
  9 19  3  0  0  0  0
 10 22  2  0  0  0  0
 10 23  1  0  0  0  0
 11 22  1  0  0  0  0
 11 34  1  0  0  0  0
 11 35  1  0  0  0  0
 12 13  1  0  0  0  0
 12 16  1  0  0  0  0
 12 19  1  6  0  0  0
 13 14  1  0  0  0  0
 13 24  1  0  0  0  0
 14 15  1  0  0  0  0
 14 25  1  0  0  0  0
 14 26  1  0  0  0  0
 15 17  1  1  0  0  0
 15 27  1  0  0  0  0
 16 18  2  0  0  0  0
 17 28  1  0  0  0  0
 17 29  1  0  0  0  0
 18 21  1  0  0  0  0
 18 30  1  0  0  0  0
 20 21  2  0  0  0  0
 20 22  1  0  0  0  0
 21 32  1  0  0  0  0
 23 33  1  0  0  0  0
M  CHG  1   1   1
M  END
> <PUBCHEM_COMPOUND_CID>
134443515

> <PUBCHEM_COMPOUND_CANONICALIZED>
1

> <PUBCHEM_CACTVS_COMPLEXITY>
529

> <PUBCHEM_CACTVS_HBOND_ACCEPTOR>
9

> <PUBCHEM_CACTVS_HBOND_DONOR>
3

> <PUBCHEM_CACTVS_ROTATABLE_BOND>
4

> <PUBCHEM_CACTVS_SUBSKEYS>
AAADccBzuAIAAAAAAAAAAAAAAAAAAWJAAAAsAAAAAAAAAFgB4AAAHgAYCCAADFyhlgY18LZIFxCyRSZjZISShC8xkqAd2CA4fJiL/uLAuJmX8AhnyAPb6C/Q8PcOAAAAAAAAAAAAAAAAAAAAAAAAAAAAAA==

> <PUBCHEM_IUPAC_OPENEYE_NAME>
[(2S,4R,5R)-5-(4-aminopyrrolo[2,1-f][1,2,4]triazin-7-yl)-5-cyano-4-hydroxy-tetrahydrofuran-2-yl]methoxy-hydroxy-oxo-phosphonium

> <PUBCHEM_IUPAC_CAS_NAME>
[(2S,4R,5R)-5-(4-amino-7-pyrrolo[2,1-f][1,2,4]triazinyl)-5-cyano-4-hydroxy-2-oxolanyl]methoxy-hydroxy-oxophosphonium

> <PUBCHEM_IUPAC_NAME_MARKUP>
[(2<I>S</I>,4<I>R</I>,5<I>R</I>)-5-(4-aminopyrrolo[2,1-f][1,2,4]triazin-7-yl)-5-cyano-4-hydroxyoxolan-2-yl]methoxy-hydroxy-oxophosphanium

> <PUBCHEM_IUPAC_NAME>
[(2S,4R,5R)-5-(4-aminopyrrolo[2,1-f][1,2,4]triazin-7-yl)-5-cyano-4-hydroxyoxolan-2-yl]methoxy-hydroxy-oxophosphanium

> <PUBCHEM_IUPAC_SYSTEMATIC_NAME>
[(2S,4R,5R)-5-(4-azanylpyrrolo[2,1-f][1,2,4]triazin-7-yl)-5-cyano-4-oxidanyl-oxolan-2-yl]methoxy-oxidanyl-oxidanylidene-phosphanium

> <PUBCHEM_IUPAC_TRADITIONAL_NAME>
[(2S,4R,5R)-5-(4-aminopyrrolo[2,1-f][1,2,4]triazin-7-yl)-5-cyano-4-hydroxy-tetrahydrofuran-2-yl]methoxy-hydroxy-keto-phosphonium

> <PUBCHEM_IUPAC_INCHI>
InChI=1S/C12H12N5O5P/c13-5-12(10(18)3-7(22-12)4-21-23(19)20)9-2-1-8-11(14)15-6-16-17(8)9/h1-2,6-7,10,18H,3-4H2,(H2-,14,15,16,19,20)/p+1/t7-,10+,12-/m0/s1

> <PUBCHEM_IUPAC_INCHIKEY>
NAUQOELBWVMVBE-KOLSJAJHSA-O

> <PUBCHEM_XLOGP3_AA>
-0.9

> <PUBCHEM_EXACT_MASS>
338.065431

> <PUBCHEM_MOLECULAR_FORMULA>
C12H13N5O5P+

> <PUBCHEM_MOLECULAR_WEIGHT>
338.24

> <PUBCHEM_OPENEYE_CAN_SMILES>
C1C(OC(C1O)(C#N)C2=CC=C3N2N=CN=C3N)CO[P+](=O)O

> <PUBCHEM_OPENEYE_ISO_SMILES>
C1[C@H](O[C@@]([C@@H]1O)(C#N)C2=CC=C3N2N=CN=C3N)CO[P+](=O)O

> <PUBCHEM_CACTVS_TPSA>
156

> <PUBCHEM_MONOISOTOPIC_WEIGHT>
338.065431

> <PUBCHEM_TOTAL_CHARGE>
1

> <PUBCHEM_HEAVY_ATOM_COUNT>
23

> <PUBCHEM_ATOM_DEF_STEREO_COUNT>
3

> <PUBCHEM_ATOM_UDEF_STEREO_COUNT>
0

> <PUBCHEM_BOND_DEF_STEREO_COUNT>
0

> <PUBCHEM_BOND_UDEF_STEREO_COUNT>
0

> <PUBCHEM_ISOTOPIC_ATOM_COUNT>
0

> <PUBCHEM_COMPONENT_COUNT>
1

> <PUBCHEM_CACTVS_TAUTO_COUNT>
-1

> <PUBCHEM_COORDINATE_TYPE>
1
5
255

> <PUBCHEM_BONDANNOTATIONS>
10  22  8
10  23  8
12  19  6
15  17  5
16  18  8
18  21  8
20  21  8
20  22  8
13  3  6
7  16  8
7  20  8
7  8  8
8  23  8

