REMARK  Name = 
REMARK                            x       y       z     vdW  Elec       q    Type
REMARK                         _______ _______ _______ _____ _____    ______ ____
ROOT
ATOM      1  C   LIG    1        5.429  -3.067   0.000  0.00  0.00    +0.002 C 
ENDROOT
BRANCH   1   2
ATOM      2  C   LIG    1        5.667  -2.525   0.000  0.00  0.00    +0.002 C 
BRANCH   2   3
ATOM      3  C   LIG    1        6.267  -2.462   0.000  0.00  0.00    +0.025 C 
BRANCH   3   4
ATOM      4  C   LIG    1        6.513  -1.917   0.000  0.00  0.00    +0.151 C 
BRANCH   4   5
ATOM      5  S   LIG    1        7.100  -1.767   0.000  0.00  0.00    -0.009 S 
ATOM      6  O   LIG    1        7.617  -2.067   0.000  0.00  0.00    -0.173 OA
ATOM      7  O   LIG    1        6.667  -1.329   0.000  0.00  0.00    -0.173 OA
BRANCH   5   8
ATOM      8  C   LIG    1        7.404  -1.250   0.000  0.00  0.00    +0.163 C 
BRANCH   8   9
ATOM      9  C   LIG    1        8.004  -1.250   0.000  0.00  0.00    +0.090 C 
BRANCH   9  10
ATOM     10  S   LIG    1        8.304  -0.729   0.000  0.00  0.00    -0.075 S 
BRANCH  10  11
ATOM     11  C   LIG    1        8.012  -0.217   0.000  0.00  0.00    +0.174 A 
ATOM     12  N   LIG    1        7.417  -0.154   0.000  0.00  0.00    -0.216 NA
ATOM     13  C   LIG    1        7.292   0.425   0.000  0.00  0.00    +0.152 A 
ATOM     14  C   LIG    1        7.817   0.725   0.000  0.00  0.00    +0.169 A 
ATOM     15  N   LIG    1        7.817   1.321   0.000  0.00  0.00    -0.205 NA
ATOM     16  C   LIG    1        7.312   1.625   0.000  0.00  0.00    +0.202 A 
ATOM     17  N   LIG    1        6.779   1.325   0.000  0.00  0.00    -0.204 NA
ATOM     18  C   LIG    1        6.779   0.738   0.000  0.00  0.00    +0.192 A 
ATOM     19  N   LIG    1        6.254   0.438   0.000  0.00  0.00    -0.105 NA
ATOM     20  N   LIG    1        8.262   0.321   0.000  0.00  0.00    -0.267 N 
BRANCH  20  21
ATOM     21  C   LIG    1        8.850   0.438   0.000  0.00  0.00    +0.241 C 
ATOM     22  O   LIG    1        9.104   0.983   0.000  0.00  0.00    -0.331 OA
ATOM     23  C   LIG    1        9.700   0.921   0.000  0.00  0.00    +0.180 C 
ATOM     24  C   LIG    1        9.817   0.333   0.000  0.00  0.00    +0.216 C 
ATOM     25  O   LIG    1       10.363   0.087   0.000  0.00  0.00    -0.218 OA
ATOM     26  C   LIG    1        9.300   0.033   0.000  0.00  0.00    +0.234 C 
ATOM     27  O   LIG    1        9.238  -0.562   0.000  0.00  0.00    -0.216 OA
BRANCH  23  28
ATOM     28  C   LIG    1       10.113   1.358   0.000  0.00  0.00    +0.181 C 
BRANCH  28  29
ATOM     29  O   LIG    1       10.688   1.196   0.000  0.00  0.00    -0.311 OA
BRANCH  29  30
ATOM     30  P   LIG    1       11.113   1.613   0.000  0.00  0.00    +0.223 P 
ATOM     31  O   LIG    1       11.542   1.188   0.000  0.00  0.00    -0.437 OA
ATOM     32  O   LIG    1       11.542   2.033   0.000  0.00  0.00    -0.517 OA
BRANCH  30  33
ATOM     33  O   LIG    1       10.692   2.038   0.000  0.00  0.00    -0.226 OA
BRANCH  33  34
ATOM     34  P   LIG    1       10.854   2.612   0.000  0.00  0.00    +0.537 P 
ATOM     35  O   LIG    1       11.429   2.458   0.000  0.00  0.00    -0.114 OA
ATOM     36  O   LIG    1       11.012   3.183   0.000  0.00  0.00    -0.114 OA
ATOM     37  O   LIG    1       10.267   2.783   0.000  0.00  0.00    -0.222 OA
ENDBRANCH  33  34
ENDBRANCH  30  33
ENDBRANCH  29  30
ENDBRANCH  28  29
ENDBRANCH  23  28
ENDBRANCH  20  21
ENDBRANCH  10  11
ENDBRANCH   9  10
ENDBRANCH   8   9
ENDBRANCH   5   8
ENDBRANCH   4   5
ENDBRANCH   3   4
ENDBRANCH   2   3
ENDBRANCH   1   2
BRANCH   1  38
ATOM     38  C   LIG    1        4.829  -3.129   0.000  0.00  0.00    +0.025 C 
BRANCH  38  39
ATOM     39  C   LIG    1        4.588  -3.675   0.000  0.00  0.00    +0.151 C 
BRANCH  39  40
ATOM     40  S   LIG    1        3.987  -3.737   0.000  0.00  0.00    -0.009 S 
ATOM     41  O   LIG    1        4.204  -4.287   0.000  0.00  0.00    -0.173 OA
ATOM     42  O   LIG    1        3.642  -3.242   0.000  0.00  0.00    -0.173 OA
BRANCH  40  43
ATOM     43  C   LIG    1        3.425  -3.942   0.000  0.00  0.00    +0.163 C 
BRANCH  43  44
ATOM     44  C   LIG    1        3.329  -4.537   0.000  0.00  0.00    +0.090 C 
BRANCH  44  45
ATOM     45  S   LIG    1        2.767  -4.742   0.000  0.00  0.00    -0.075 S 
BRANCH  45  55
ATOM     46  N   LIG    1        1.717  -4.517   0.000  0.00  0.00    -0.267 N 
ATOM     47  C   LIG    1        1.392  -4.017   0.000  0.00  0.00    +0.169 A 
ATOM     48  N   LIG    1        0.804  -3.917   0.000  0.00  0.00    -0.205 NA
ATOM     49  C   LIG    1        0.579  -3.354   0.000  0.00  0.00    +0.202 A 
ATOM     50  N   LIG    1        0.967  -2.904   0.000  0.00  0.00    -0.204 NA
ATOM     51  C   LIG    1        1.567  -3.000   0.000  0.00  0.00    +0.192 A 
ATOM     52  N   LIG    1        1.942  -2.542   0.000  0.00  0.00    -0.105 NA
ATOM     53  C   LIG    1        1.779  -3.562   0.000  0.00  0.00    +0.152 A 
ATOM     54  N   LIG    1        2.337  -3.775   0.000  0.00  0.00    -0.216 NA
ATOM     55  C   LIG    1        2.300  -4.367   0.000  0.00  0.00    +0.174 A 
BRANCH  46  56
ATOM     56  C   LIG    1        1.504  -5.075   0.000  0.00  0.00    +0.241 C 
ATOM     57  O   LIG    1        0.917  -5.229   0.000  0.00  0.00    -0.331 OA
ATOM     58  C   LIG    1        0.887  -5.829   0.000  0.00  0.00    +0.180 C 
ATOM     59  C   LIG    1        1.454  -6.037   0.000  0.00  0.00    +0.216 C 
ATOM     60  O   LIG    1        1.613  -6.612   0.000  0.00  0.00    -0.218 OA
ATOM     61  C   LIG    1        1.825  -5.579   0.000  0.00  0.00    +0.234 C 
ATOM     62  O   LIG    1        2.417  -5.612   0.000  0.00  0.00    -0.216 OA
BRANCH  58  63
ATOM     63  C   LIG    1        0.379  -6.142   0.000  0.00  0.00    +0.181 C 
BRANCH  63  64
ATOM     64  O   LIG    1        0.438  -6.742   0.000  0.00  0.00    -0.311 OA
BRANCH  64  65
ATOM     65  P   LIG    1       -0.046  -7.079   0.000  0.00  0.00    +0.223 P 
ATOM     66  O   LIG    1        0.304  -7.575   0.000  0.00  0.00    -0.437 OA
ATOM     67  O   LIG    1       -0.533  -7.429   0.000  0.00  0.00    -0.517 OA
BRANCH  65  68
ATOM     68  O   LIG    1       -0.396  -6.604   0.000  0.00  0.00    -0.226 OA
BRANCH  68  69
ATOM     69  P   LIG    1       -0.996  -6.654   0.000  0.00  0.00    +0.537 P 
ATOM     70  O   LIG    1       -1.608  -6.725   0.000  0.00  0.00    -0.114 OA
ATOM     71  O   LIG    1       -0.938  -7.254   0.000  0.00  0.00    -0.114 OA
ATOM     72  O   LIG    1       -1.062  -6.067   0.000  0.00  0.00    -0.222 OA
ENDBRANCH  68  69
ENDBRANCH  65  68
ENDBRANCH  64  65
ENDBRANCH  63  64
ENDBRANCH  58  63
ENDBRANCH  46  56
ENDBRANCH  45  55
ENDBRANCH  44  45
ENDBRANCH  43  44
ENDBRANCH  40  43
ENDBRANCH  39  40
ENDBRANCH  38  39
ENDBRANCH   1  38
TORSDOF 27
