
     RDKit          2D

 27 29  0  0  0  0  0  0  0  0999 V2000
    1.4441   -0.2533    0.0000 C   0  0  0  0  0  0  0  0  0  0  0  0
    0.6594   -0.5082    0.0000 C   0  0  0  0  0  0  0  0  0  0  0  0
    0.4045   -1.2928    0.0000 C   0  0  0  0  0  0  0  0  0  0  0  0
    0.8894   -1.9603    0.0000 O   0  0  0  0  0  0  0  0  0  0  0  0
   -0.4205   -1.2928    0.0000 C   0  0  0  0  0  0  0  0  0  0  0  0
   -0.9054   -1.9603    0.0000 O   0  0  0  0  0  0  0  0  0  0  0  0
   -0.6754   -0.5082    0.0000 C   0  0  0  0  0  0  0  0  0  0  0  0
   -0.0080   -0.0233    0.0000 O   0  0  0  0  0  0  0  0  0  0  0  0
   -1.4601   -0.2533    0.0000 N   0  0  0  0  0  0  0  0  0  0  0  0
   -2.1275   -0.7382    0.0000 C   0  0  0  0  0  0  0  0  0  0  0  0
   -2.7949   -0.2533    0.0000 N   0  0  0  0  0  0  0  0  0  0  0  0
   -2.5400    0.5313    0.0000 C   0  0  0  0  0  0  0  0  0  0  0  0
   -2.9525    1.2458    0.0000 C   0  0  0  0  0  0  0  0  0  0  0  0
   -3.7775    1.2458    0.0000 N   0  0  0  0  0  0  0  0  0  0  0  0
   -2.5400    1.9603    0.0000 N   0  0  0  0  0  0  0  0  0  0  0  0
   -1.7150    1.9603    0.0000 C   0  0  0  0  0  0  0  0  0  0  0  0
   -1.3025    1.2458    0.0000 N   0  0  0  0  0  0  0  0  0  0  0  0
   -1.7150    0.5313    0.0000 C   0  0  0  0  0  0  0  0  0  0  0  0
    2.8243   -0.6231    0.0000 P   0  0  0  0  0  0  0  0  0  0  0  0
    3.6212   -0.4096    0.0000 O   0  0  0  0  0  0  0  0  0  0  0  0
    2.0274   -0.8366    0.0000 C   0  0  0  0  0  0  0  0  0  0  0  0
    2.6108    1.3405    0.0000 O   0  0  0  0  0  0  0  0  0  0  0  0
    3.0378   -1.4200    0.0000 O   0  0  0  0  0  0  0  0  0  0  0  0
    2.6108    0.1738    0.0000 C   0  0  0  0  0  0  0  0  0  0  0  0
    3.1941    0.7571    0.0000 P   0  0  0  0  0  0  0  0  0  0  0  0
    3.7775    1.3405    0.0000 O   0  0  0  0  0  0  0  0  0  0  0  0
    3.7775    0.1738    0.0000 O   0  0  0  0  0  0  0  0  0  0  0  0
  2  1  1  6
  2  3  1  0
  3  4  1  1
  3  5  1  0
  5  6  1  1
  5  7  1  0
  7  8  1  0
  2  8  1  0
  7  9  1  6
  9 10  1  0
 10 11  2  0
 11 12  1  0
 12 13  1  0
 13 14  1  0
 13 15  2  0
 15 16  1  0
 16 17  2  0
 17 18  1  0
 12 18  2  0
  9 18  1  0
 19 20  2  0
 19 21  1  0
 19 23  1  0
 19 24  1  0
 24 25  1  0
 22 25  1  0
 25 26  2  0
 25 27  1  0
  1 21  1  0
M  END

> <chembl_id>
CHEMBL602149

> <chembl_pref_name>
None

