
     RDKit          2D

 36 39  0  0  0  0  0  0  0  0999 V2000
   16.2985   -0.5749    0.0000 N   0  0  0  0  0  0  0  0  0  0  0  0
   16.2974   -1.4024    0.0000 C   0  0  0  0  0  0  0  0  0  0  0  0
   17.0122   -1.8152    0.0000 N   0  0  0  0  0  0  0  0  0  0  0  0
   17.0104   -0.1622    0.0000 C   0  0  0  0  0  0  0  0  0  0  0  0
   17.7257   -0.5713    0.0000 C   0  0  0  0  0  0  0  0  0  0  0  0
   17.7306   -1.3977    0.0000 C   0  0  0  0  0  0  0  0  0  0  0  0
   18.5181   -1.6486    0.0000 N   0  0  0  0  0  0  0  0  0  0  0  0
   19.0000   -0.9771    0.0000 C   0  0  0  0  0  0  0  0  0  0  0  0
   18.5103   -0.3114    0.0000 N   0  0  0  0  0  0  0  0  0  0  0  0
   17.0080    0.6705    0.0000 N   0  0  0  0  0  0  0  0  0  0  0  0
   18.7776   -2.4317    0.0000 C   0  0  0  0  0  0  0  0  0  0  0  0
   18.3006   -3.1011    0.0000 O   0  0  0  0  0  0  0  0  0  0  0  0
   18.7893   -3.7658    0.0000 C   0  0  0  0  0  0  0  0  0  0  0  0
   19.5725   -3.5063    0.0000 C   0  0  0  0  0  0  0  0  0  0  0  0
   19.5676   -2.6814    0.0000 C   0  0  0  0  0  0  0  0  0  0  0  0
   18.5389   -4.5519    0.0000 C   0  0  0  0  0  0  0  0  0  0  0  0
   17.7330   -4.7281    0.0000 O   0  0  0  0  0  0  0  0  0  0  0  0
   17.4826   -5.5142    0.0000 P   0  0  0  0  0  0  0  0  0  0  0  0
   16.6767   -5.6905    0.0000 O   0  0  0  0  0  0  0  0  0  0  0  0
   18.0382   -6.1241    0.0000 O   0  0  0  0  0  0  0  0  0  0  0  0
   16.7882   -5.0689    0.0000 O   0  0  0  0  0  0  0  0  0  0  0  0
   16.4263   -6.4765    0.0000 P   0  0  0  0  0  0  0  0  0  0  0  0
   15.6203   -6.6528    0.0000 O   0  0  0  0  0  0  0  0  0  0  0  0
   16.9819   -7.0864    0.0000 O   0  0  0  0  0  0  0  0  0  0  0  0
   15.7318   -6.0312    0.0000 O   0  0  0  0  0  0  0  0  0  0  0  0
   15.3700   -7.4388    0.0000 C   0  0  0  0  0  0  0  0  0  0  0  0
   14.5640   -7.6151    0.0000 C   0  0  0  0  0  0  0  0  0  0  0  0
   13.9438   -7.0668    0.0000 O   0  0  0  0  0  0  0  0  0  0  0  0
   13.2317   -7.4834    0.0000 C   0  0  0  0  0  0  0  0  0  0  0  0
   13.4079   -8.2894    0.0000 C   0  0  0  0  0  0  0  0  0  0  0  0
   14.2289   -8.3707    0.0000 C   0  0  0  0  0  0  0  0  0  0  0  0
   12.4761   -7.1523    0.0000 O   0  0  0  0  0  0  0  0  0  0  0  0
   12.8595   -8.9058    0.0000 O   0  0  0  0  0  0  0  0  0  0  0  0
   14.6440   -9.0837    0.0000 O   0  0  0  0  0  0  0  0  0  0  0  0
   20.2428   -3.9872    0.0000 O   0  0  0  0  0  0  0  0  0  0  0  0
   20.2317   -2.1917    0.0000 O   0  0  0  0  0  0  0  0  0  0  0  0
  1  2  2  0
  2  3  1  0
  3  6  2  0
  5  4  2  0
  4  1  1  0
  5  6  1  0
  6  7  1  0
  7  8  1  0
  8  9  2  0
  9  5  1  0
  4 10  1  0
 11  7  1  1
 11 12  1  0
 12 13  1  0
 13 14  1  0
 14 15  1  0
 15 11  1  0
 13 16  1  1
 16 17  1  0
 17 18  1  0
 18 19  1  0
 18 20  2  0
 18 21  1  0
 19 22  1  0
 22 23  1  0
 22 24  2  0
 22 25  1  0
 23 26  1  0
 27 26  1  1
 27 28  1  0
 28 29  1  0
 29 30  1  0
 30 31  1  0
 31 27  1  0
 29 32  1  1
 30 33  1  6
 31 34  1  6
 14 35  1  6
 15 36  1  6
M  END

> <chembl_id>
CHEMBL4226903

> <chembl_pref_name>
None

