REMARK  Name = 171548
REMARK                            x       y       z     vdW  Elec       q    Type
REMARK                         _______ _______ _______ _____ _____    ______ ____
ROOT
ATOM      1  S   LIG    1       -2.461   1.956   1.026  0.00  0.00    -0.154 S 
ATOM      2  C   LIG    1       -3.788   1.577  -0.140  0.00  0.00    +0.093 C 
ATOM      3  C   LIG    1       -3.327   0.333  -0.895  0.00  0.00    +0.105 C 
ATOM      4  C   LIG    1       -1.796   0.156  -0.785  0.00  0.00    +0.108 C 
ATOM      5  N   LIG    1       -1.639  -1.078  -0.038  0.00  0.00    -0.294 N 
ATOM      6  H   LIG    1       -0.745  -1.496   0.198  0.00  0.00    +0.151 HD
ATOM      7  C   LIG    1       -2.864  -1.703   0.220  0.00  0.00    +0.300 C 
ATOM      8  O   LIG    1       -3.028  -2.775   0.786  0.00  0.00    -0.253 OA
ATOM      9  N   LIG    1       -3.865  -0.876  -0.302  0.00  0.00    -0.294 N 
ATOM     10  H   LIG    1       -4.854  -1.105  -0.275  0.00  0.00    +0.151 HD
ATOM     11  C   LIG    1       -1.176   1.386  -0.116  0.00  0.00    +0.069 C 
ENDROOT
BRANCH  11  12
ATOM     12  C   LIG    1        0.151   1.155   0.586  0.00  0.00    +0.016 C 
BRANCH  12  13
ATOM     13  C   LIG    1        1.254   0.637  -0.341  0.00  0.00    +0.002 C 
BRANCH  13  14
ATOM     14  C   LIG    1        2.627   0.438   0.307  0.00  0.00    +0.011 C 
BRANCH  14  15
ATOM     15  C   LIG    1        3.702  -0.023  -0.676  0.00  0.00    +0.120 C 
BRANCH  15  16
ATOM     16  C   LIG    1        5.017  -0.299   0.017  0.00  0.00    +0.305 C 
ATOM     17  O   LIG    1        5.234  -0.156   1.212  0.00  0.00    -0.251 OA
BRANCH  16  18
ATOM     18  O   LIG    1        5.960  -0.729  -0.863  0.00  0.00    -0.481 OA
ATOM     19  H   LIG    1        6.818  -0.907  -0.420  0.00  0.00    +0.295 HD
ENDBRANCH  16  18
ENDBRANCH  15  16
ENDBRANCH  14  15
ENDBRANCH  13  14
ENDBRANCH  12  13
ENDBRANCH  11  12
TORSDOF 6
