REMARK  Name = 1060
REMARK                            x       y       z     vdW  Elec       q    Type
REMARK                         _______ _______ _______ _____ _____    ______ ____
ROOT
ATOM      1  C   LIG    1       -0.762   0.148   0.014  0.00  0.00    +0.372 C 
ATOM      2  O   LIG    1       -1.194   1.282  -0.018  0.00  0.00    -0.242 OA
ENDROOT
BRANCH   1   3
ATOM      3  C   LIG    1        0.711  -0.145  -0.000  0.00  0.00    +0.236 C 
ATOM      4  C   LIG    1        1.644   1.027   0.010  0.00  0.00    +0.099 C 
ATOM      5  O   LIG    1        1.059  -1.317  -0.014  0.00  0.00    -0.285 OA
ENDBRANCH   1   3
BRANCH   1   6
ATOM      6  O   LIG    1       -1.458  -0.996   0.008  0.00  0.00    -0.475 OA
ATOM      7  H   LIG    1       -2.427  -0.842  -0.007  0.00  0.00    +0.295 HD
ENDBRANCH   1   6
TORSDOF 2
